geometry optimzed in LAMMPS
_audit_creation_date              2020-11-30 
_audit_creation_method            'lammps2cif' 
_symmetry_space_group_name_H-M    'P1' 
_symmetry_Int_Tables_number       1 
_symmetry_cell_setting            triclinic 
loop_ 
_symmetry_equiv_pos_as_xyz 
  x,y,z 
_cell_length_a                    27.647731420316443 
_cell_length_b                    27.644210425565035 
_cell_length_c                    27.63614600367399 
_cell_angle_alpha                 84.04993942872662 
_cell_angle_beta                  84.23234641938986 
_cell_angle_gamma                 95.73173865968393 
loop_ 
_atom_site_label 
_atom_site_type_symbol 
_atom_site_fract_x 
_atom_site_fract_y 
_atom_site_fract_z 
_atom_site_charge 
C1          C  0.09576343  0.29668161  0.51347639     0.03530
C2          C  0.14659770  0.29780450  0.00810945    -0.12620
C3          C  0.16795863  0.25440117  0.00663733     0.01030
C4          C  0.13967133  0.21071284  0.00386512    -0.11150
C5          C  0.08908520  0.20734070  0.51349641     0.03520
C6          C  0.06639485  0.25078879  0.51770350    -0.10570
H7          H  0.16920446  0.33126927  0.01207171     0.09110
H8          H  0.15752852  0.17746894  0.00316708     0.06640
H9          H  0.02714876  0.24873658  0.52674663     0.06490
C10         C  0.40333610  0.17544669  0.11383654     0.03530
C11         C  0.43114770  0.22166399  0.11447656    -0.12620
C12         C  0.40730445  0.26502991  0.11282331     0.01030
C13         C  0.35686995  0.26094350  0.11194583    -0.11150
C14         C  0.33144351  0.21691639  0.10531462     0.03520
C15         C  0.35357865  0.17397259  0.10836177    -0.10570
H16         H  0.47061773  0.22405382  0.11298263     0.09110
H17         H  0.33801902  0.29359872  0.10924892     0.06640
H18         H  0.33331148  0.14028661  0.10111144     0.06490
C19         C  0.18848334  0.43639691  0.16128937     0.03530
C20         C  0.18665147  0.43801774  0.21177692    -0.12620
C21         C  0.22961521  0.44037151  0.23411072     0.01030
C22         C  0.27395774  0.43605179  0.20767937    -0.11150
C23         C  0.27812073  0.43838531  0.15696960     0.03520
C24         C  0.23485400  0.43800742  0.13312042    -0.10570
H25         H  0.15263704  0.44336305  0.23274380     0.09110
H26         H  0.30678809  0.43813698  0.22623842     0.06640
H27         H  0.23736619  0.44192917  0.09352020     0.06490
C28         C  0.30997235  0.03834828  0.46823318     0.03530
C29         C  0.31141764  0.04239459  0.41736343    -0.12620
C30         C  0.26806442  0.04128500  0.39565722     0.01080
C31         C  0.22382424  0.04292583  0.42357867    -0.11150
C32         C  0.22040182  0.03607071  0.47439055     0.03520
C33         C  0.26392249  0.03405685  0.99738030    -0.10570
H34         H  0.34536772  0.03919875  0.39514282     0.09110
H35         H  0.19059826  0.04180920  0.40562399     0.06640
H36         H  0.26187856  0.02651607  0.03682591     0.06490
C37         C  0.05249624  0.08284416  0.25430716     0.03530
C38         C  0.05944136  0.13372771  0.25264351    -0.12620
C39         C  0.05885589  0.15543953  0.29601971     0.01030
C40         C  0.05909715  0.12706032  0.34042450    -0.11150
C41         C  0.04987210  0.07641743  0.34394094     0.03520
C42         C  0.04670438  0.05364884  0.30049623    -0.10570
H43         H  0.05757877  0.15632732  0.21849222     0.09110
H44         H  0.05858452  0.14484302  0.37370048     0.06640
H45         H  0.03733851  0.01443068  0.30268440     0.06490
C46         C  0.45045323  0.38951058  0.37658164     0.03530
C47         C  0.45491514  0.33947350  0.37801780    -0.12620
C48         C  0.45808145  0.31752575  0.33487896     0.01030
C49         C  0.45230631  0.34384792  0.29079035    -0.11150
C50         C  0.45213591  0.39433323  0.28690491     0.03520
C51         C  0.45055238  0.41777860  0.33037318    -0.10570
H52         H  0.46122888  0.31872022  0.41189905     0.09110
H53         H  0.45493197  0.32560854  0.25782258     0.06640
H54         H  0.45259695  0.45728967  0.32811426     0.06490
O55         O  0.07937176  0.37857343  0.99138376    -0.79730
O56         O  0.44191969  0.45910231  0.22549479    -0.81290
O57         O  0.10767391  0.41200083  0.14246404    -0.78310
O58         O  0.47176437  0.32636432  0.12325382    -0.76690
O59         O  0.41168459  0.34699214  0.07627845    -0.78480
O60         O  0.14132557  0.49172504  0.12322020    -0.79410
O61         O  0.48873060  0.39894943  0.20501105    -0.80740
O62         O  0.05907363  0.34335296  0.07054107    -0.81030
Eu63       Eu  0.02315070  0.40442553  0.11728252     2.39200
O64         O  0.44449920  0.43151814  0.12031963    -0.88540
O65         O  0.07768302  0.46026169  0.06284339    -0.92140
C66         C  0.07601051  0.34212157  0.02554220     1.02550
C67         C  0.46166037  0.41976229  0.23623894     1.02370
C68         C  0.14345094  0.44672151  0.13952995     1.02310
C69         C  0.43247154  0.31572251  0.10348972     1.00170
H70         H  0.03856406  0.47911489  0.17464114     0.29920
O71         O  0.02625011  0.48252172  0.14318419    -1.00930
H72         H  0.49205815  0.37674218  0.02662386     0.29950
O73         O  0.49548331  0.40823251  0.03874925    -1.03470
O74         O  0.42280121  0.09495764  0.13931126    -0.80690
O75         O  0.05763280  0.01243337  0.40616171    -0.80230
O76         O  0.07414537  0.06659335  0.17232348    -0.78670
O77         O  0.33962139  0.42911364  0.09254908    -0.82010
O78         O  0.42528016  0.40911115  0.45705929    -0.79860
O79         O  0.15851036  0.04477829  0.03836581    -0.78510
O80         O  0.02524772  0.14529540  0.00593944    -0.80030
O81         O  0.39164628  0.06073149  0.48500101    -0.81960
O82         O  0.08513089  0.12712221  0.05428551    -0.78700
O83         O  0.35668655  0.48161072  0.00542559    -0.81370
O84         O  0.49521905  0.04612791  0.20782026    -0.77110
O85         O  0.14000325  0.49597898  0.47917504    -0.77140
O86         O  0.50518396  0.42745240  0.42384158    -0.76780
O87         O  0.35980205  0.47564628  0.15300041    -0.80280
O88         O  0.44136220  0.12808750  0.05927593    -0.79710
O89         O  0.50919685  0.07220380  0.42414206    -0.78030
Eu90       Eu  0.44769545  0.01024191  0.14716443     2.39770
Eu91       Eu  0.05223034  0.46215385  0.48464276     2.39570
Eu92       Eu  0.08023782  0.03928231  0.08891476     2.38400
Eu93       Eu  0.41761840  0.43467155  0.04150230     2.39880
Eu94       Eu  0.47524585  0.06693968  0.01202871     2.39790
O95         O  0.47338403  0.48878048  0.98670697    -0.92450
O96         O  0.50192460  0.06456967  0.09089967    -0.91340
C97         C  0.42547985  0.13052663  0.10426015     1.02720
C98         C  0.03736856  0.05112048  0.39417763     1.01440
C99         C  0.04021569  0.06315021  0.20888420     1.00830
C100        C  0.32876024  0.44860836  0.13190559     1.02840
C101        C  0.46022944  0.41147974  0.42153720     1.01760
C102        C  0.17019816  0.02424563  0.99985699     1.00610
C103        C  0.06395688  0.15714946  0.02606251     1.00670
C104        C  0.35531490  0.02659633  0.48841575     1.03280
H105        H  0.07701553  0.06396670  0.48706895     0.30650
O106        O  0.05448402  0.04142694  0.00978673    -1.04610
H107        H  0.38987210  0.02538922  0.07247335     0.32700
O108        O  0.42134415  0.01314082  0.06912254    -1.07170
C109        C  0.05861799  0.23776897  0.32340698     0.23990
C110        C  0.03650876  0.20059079  0.29954027    -0.24110
C111        C  0.48696727  0.19987360  0.29164368     0.18900
C112        C  0.45983885  0.23584268  0.30756868     0.23940
C113        C  0.48187708  0.27319611  0.33117356    -0.24060
C114        C  0.03151132  0.27421472  0.33887394     0.18840
F115        F  0.05421151  0.31169817  0.35921408    -0.14020
F116        F  0.10595511  0.23786409  0.33265369    -0.16380
F117        F  0.41235185  0.23525348  0.29871111    -0.16380
F118        F  0.46408953  0.16271126  0.27097004    -0.14020
C119        C  0.25421593  0.44105253  0.31708537     0.23990
C120        C  0.23295603  0.46404693  0.27836486    -0.24110
C121        C  0.22762781  0.01431674  0.27599976     0.18900
C122        C  0.24303305  0.04118350  0.31251153     0.23940
C123        C  0.26437527  0.01813752  0.35115532    -0.24060
C124        C  0.26985497  0.46792202  0.35336821     0.18840
F125        F  0.28806946  0.44444167  0.39203486    -0.14020
F126        F  0.26098902  0.39294148  0.31877450    -0.16380
F127        F  0.23638623  0.08931729  0.31089009    -0.16380
F128        F  0.20988968  0.03778537  0.23703773    -0.14020
C129        C  0.20520030  0.23838711  0.08217823     0.23990
C130        C  0.21145690  0.24902621  0.03085721    -0.24110
C131        C  0.25605854  0.24498109  0.00402886     0.18900
C132        C  0.29479520  0.23109558  0.02866163     0.23940
C133        C  0.28840659  0.22045771  0.08000544    -0.24060
C134        C  0.24371198  0.22422927  0.10667732     0.18840
F135        F  0.23795552  0.21527345  0.15627866    -0.14020
F136        F  0.16113690  0.24024765  0.10816002    -0.16380
F137        F  0.33911559  0.22994492  0.50292792    -0.16380
F138        F  0.26176209  0.25427031  0.45445009    -0.14020
C139        C  0.09576342  0.29668159  0.01347639     0.03530
C140        C  0.14659771  0.29780451  0.50810950    -0.12620
C141        C  0.16795864  0.25440117  0.50663739     0.01030
C142        C  0.13967133  0.21071285  0.50386515    -0.11150
C143        C  0.08908520  0.20734068  0.01349641     0.03520
C144        C  0.06639484  0.25078876  0.01770352    -0.10570
H145        H  0.16920447  0.33126927  0.51207177     0.09110
H146        H  0.15752852  0.17746895  0.50316713     0.06640
H147        H  0.02714875  0.24873655  0.02674668     0.06490
C148        C  0.40333610  0.17544669  0.61383656     0.03530
C149        C  0.43114771  0.22166400  0.61447656    -0.12620
C150        C  0.40730446  0.26502991  0.61282333     0.01030
C151        C  0.35686996  0.26094351  0.61194589    -0.11150
C152        C  0.33144350  0.21691640  0.60531470     0.03520
C153        C  0.35357864  0.17397260  0.60836183    -0.10570
H154        H  0.47061774  0.22405382  0.61298260     0.09110
H155        H  0.33801903  0.29359873  0.60924900     0.06640
H156        H  0.33331146  0.14028662  0.60111151     0.06490
C157        C  0.18848336  0.43639693  0.66128935     0.03530
C158        C  0.18665148  0.43801773  0.71177690    -0.12620
C159        C  0.22961522  0.44037149  0.73411071     0.01030
C160        C  0.27395775  0.43605177  0.70767936    -0.11150
C161        C  0.27812074  0.43838531  0.65696959     0.03520
C162        C  0.23485402  0.43800744  0.63312040    -0.10570
H163        H  0.15263705  0.44336305  0.73274378     0.09110
H164        H  0.30678810  0.43813695  0.72623840     0.06640
H165        H  0.23736621  0.44192920  0.59352018     0.06490
C166        C  0.30997236  0.03834826  0.96823318     0.03530
C167        C  0.31141765  0.04239457  0.91736344    -0.12620
C168        C  0.26806443  0.04128499  0.89565723     0.01080
C169        C  0.22382425  0.04292581  0.92357868    -0.11150
C170        C  0.22040183  0.03607069  0.97439056     0.03520
C171        C  0.26392248  0.03405687  0.49738029    -0.10570
H172        H  0.34536772  0.03919873  0.89514283     0.09110
H173        H  0.19059827  0.04180919  0.90562400     0.06640
H174        H  0.26187854  0.02651608  0.53682591     0.06490
C175        C  0.05249624  0.08284416  0.75430716     0.03530
C176        C  0.05944136  0.13372771  0.75264352    -0.12620
C177        C  0.05885590  0.15543952  0.79601972     0.01030
C178        C  0.05909716  0.12706031  0.84042451    -0.11150
C179        C  0.04987211  0.07641742  0.84394094     0.03520
C180        C  0.04670439  0.05364884  0.80049623    -0.10570
H181        H  0.05757877  0.15632732  0.71849223     0.09110
H182        H  0.05858454  0.14484300  0.87370049     0.06640
H183        H  0.03733851  0.01443067  0.80268439     0.06490
C184        C  0.45045321  0.38951059  0.87658165     0.03530
C185        C  0.45491510  0.33947350  0.87801781    -0.12620
C186        C  0.45808142  0.31752575  0.83487897     0.01030
C187        C  0.45230630  0.34384792  0.79079036    -0.11150
C188        C  0.45213591  0.39433323  0.78690491     0.03520
C189        C  0.45055238  0.41777860  0.83037318    -0.10570
H190        H  0.46122883  0.31872022  0.91189906     0.09110
H191        H  0.45493196  0.32560854  0.75782258     0.06640
H192        H  0.45259696  0.45728967  0.82811426     0.06490
O193        O  0.07937178  0.37857345  0.49138376    -0.79730
O194        O  0.44191970  0.45910231  0.72549478    -0.81290
O195        O  0.10767393  0.41200085  0.64246402    -0.78310
O196        O  0.47176438  0.32636433  0.62325382    -0.76690
O197        O  0.41168460  0.34699214  0.57627845    -0.78480
O198        O  0.14132559  0.49172506  0.62322019    -0.79410
O199        O  0.48873061  0.39894942  0.70501105    -0.80740
O200        O  0.05907364  0.34335298  0.57054107    -0.81030
Eu201      Eu  0.02315072  0.40442555  0.61728251     2.39200
O202        O  0.44449921  0.43151813  0.62031962    -0.88540
O203        O  0.07768303  0.46026171  0.56284338    -0.92140
C204        C  0.07601052  0.34212160  0.52554219     1.02550
C205        C  0.46166038  0.41976229  0.73623894     1.02370
C206        C  0.14345095  0.44672153  0.63952993     1.02310
C207        C  0.43247155  0.31572251  0.60348973     1.00170
H208        H  0.03856408  0.47911491  0.67464113     0.29920
O209        O  0.02625013  0.48252174  0.64318418    -1.00930
H210        H  0.49205817  0.37674218  0.52662386     0.29950
O211        O  0.49548332  0.40823251  0.53874924    -1.03470
O212        O  0.42280120  0.09495764  0.63931126    -0.80690
O213        O  0.05763282  0.01243335  0.90616172    -0.80230
O214        O  0.07414536  0.06659336  0.67232348    -0.78670
O215        O  0.33962140  0.42911365  0.59254907    -0.82010
O216        O  0.42528014  0.40911115  0.95705929    -0.79860
O217        O  0.15851035  0.04477830  0.53836580    -0.78510
O218        O  0.02524771  0.14529542  0.50593944    -0.80030
O219        O  0.39164629  0.06073148  0.98500101    -0.81960
O220        O  0.08513087  0.12712222  0.55428550    -0.78700
O221        O  0.35668656  0.48161072  0.50542558    -0.81370
O222        O  0.49521904  0.04612791  0.70782025    -0.77110
O223        O  0.14000324  0.49597896  0.97917504    -0.77140
O224        O  0.50518394  0.42745240  0.92384159    -0.76780
O225        O  0.35980206  0.47564628  0.65300040    -0.80280
O226        O  0.44136219  0.12808751  0.55927593    -0.79710
O227        O  0.50919685  0.07220379  0.92414206    -0.78030
Eu228      Eu  0.44769544  0.01024191  0.64716443     2.39770
Eu229      Eu  0.05223033  0.46215383  0.98464277     2.39570
Eu230      Eu  0.08023781  0.03928232  0.58891476     2.38400
Eu231      Eu  0.41761842  0.43467155  0.54150229     2.39880
Eu232      Eu  0.47524585  0.06693969  0.51202870     2.39790
O233        O  0.47338405  0.48878048  0.48670696    -0.92450
O234        O  0.50192459  0.06456967  0.59089967    -0.91340
C235        C  0.42547985  0.13052663  0.60426015     1.02720
C236        C  0.03736858  0.05112046  0.89417763     1.01440
C237        C  0.04021569  0.06315022  0.70888420     1.00830
C238        C  0.32876025  0.44860836  0.63190557     1.02840
C239        C  0.46022943  0.41147974  0.92153720     1.01760
C240        C  0.17019815  0.02424565  0.49985698     1.00610
C241        C  0.06395687  0.15714948  0.52606251     1.00670
C242        C  0.35531491  0.02659631  0.98841576     1.03280
H243        H  0.07701554  0.06396668  0.98706895     0.30650
O244        O  0.05448401  0.04142696  0.50978672    -1.04610
H245        H  0.38987209  0.02538923  0.57247335     0.32700
O246        O  0.42134414  0.01314082  0.56912254    -1.07170
C247        C  0.05861799  0.23776896  0.82340700     0.23990
C248        C  0.03650876  0.20059078  0.79954029    -0.24110
C249        C  0.48696722  0.19987359  0.79164370     0.18900
C250        C  0.45983881  0.23584267  0.80756870     0.23940
C251        C  0.48187704  0.27319610  0.83117358    -0.24060
C252        C  0.03151132  0.27421471  0.83887395     0.18840
F253        F  0.05421151  0.31169816  0.85921409    -0.14020
F254        F  0.10595511  0.23786407  0.83265372    -0.16380
F255        F  0.41235180  0.23525347  0.79871114    -0.16380
F256        F  0.46408949  0.16271125  0.77097007    -0.14020
C257        C  0.25421591  0.44105250  0.81708537     0.23990
C258        C  0.23295603  0.46404691  0.77836485    -0.24110
C259        C  0.22762777  0.01431673  0.77599979     0.18900
C260        C  0.24303301  0.04118349  0.81251155     0.23940
C261        C  0.26437527  0.01813751  0.85115532    -0.24060
C262        C  0.26985494  0.46792197  0.85336822     0.18840
F263        F  0.28806941  0.44444161  0.89203488    -0.14020
F264        F  0.26098899  0.39294143  0.81877449    -0.16380
F265        F  0.23638616  0.08931727  0.81089014    -0.16380
F266        F  0.20988960  0.03778535  0.73703777    -0.14020
C267        C  0.20520027  0.23838705  0.58217830     0.23990
C268        C  0.21145689  0.24902620  0.53085729    -0.24110
C269        C  0.25605856  0.24498115  0.50402894     0.18900
C270        C  0.29479521  0.23109565  0.52866171     0.23940
C271        C  0.28840659  0.22045772  0.58000551    -0.24060
C272        C  0.24371196  0.22422923  0.60667739     0.18840
F273        F  0.23795548  0.21527335  0.65627872    -0.14020
F274        F  0.16113686  0.24024753  0.60816008    -0.16380
F275        F  0.33911556  0.22994478  0.00292784    -0.16380
F276        F  0.26176206  0.25427019  0.95445001    -0.14020
C277        C  0.09576343  0.79668161  0.51347638     0.03530
C278        C  0.14659771  0.79780449  0.00810944    -0.12620
C279        C  0.16795863  0.75440116  0.00663732     0.01030
C280        C  0.13967132  0.71071283  0.00386511    -0.11150
C281        C  0.08908518  0.70734070  0.51349639     0.03520
C282        C  0.06639484  0.75078878  0.51770351    -0.10570
H283        H  0.16920447  0.83126926  0.01207169     0.09110
H284        H  0.15752851  0.67746893  0.00316707     0.06640
H285        H  0.02714875  0.74873658  0.52674669     0.06490
C286        C  0.40333610  0.67544669  0.11383654     0.03530
C287        C  0.43114770  0.72166399  0.11447656    -0.12620
C288        C  0.40730446  0.76502991  0.11282331     0.01030
C289        C  0.35686995  0.76094351  0.11194582    -0.11150
C290        C  0.33144351  0.71691640  0.10531461     0.03520
C291        C  0.35357865  0.67397260  0.10836176    -0.10570
H292        H  0.47061773  0.72405382  0.11298263     0.09110
H293        H  0.33801903  0.79359872  0.10924891     0.06640
H294        H  0.33331148  0.64028662  0.10111143     0.06490
C295        C  0.18848335  0.93639690  0.16128937     0.03530
C296        C  0.18665148  0.93801772  0.21177691    -0.12620
C297        C  0.22961522  0.94037148  0.23411072     0.01030
C298        C  0.27395774  0.93605176  0.20767937    -0.11150
C299        C  0.27812074  0.93838530  0.15696961     0.03520
C300        C  0.23485402  0.93800742  0.13312041    -0.10570
H301        H  0.15263705  0.94336304  0.23274379     0.09110
H302        H  0.30678810  0.93813695  0.22623842     0.06640
H303        H  0.23736621  0.94192918  0.09352019     0.06490
C304        C  0.30997236  0.53834827  0.46823319     0.03530
C305        C  0.31141765  0.54239460  0.41736344    -0.12620
C306        C  0.26806443  0.54128502  0.39565723     0.01080
C307        C  0.22382425  0.54292584  0.42357868    -0.11150
C308        C  0.22040183  0.53607071  0.47439057     0.03520
C309        C  0.26392248  0.53405685  0.99738030    -0.10570
H310        H  0.34536772  0.53919877  0.39514283     0.09110
H311        H  0.19059827  0.54180922  0.40562400     0.06640
H312        H  0.26187854  0.52651607  0.03682591     0.06490
C313        C  0.05249624  0.58284416  0.25430716     0.03530
C314        C  0.05944136  0.63372771  0.25264351    -0.12620
C315        C  0.05885590  0.65543953  0.29601972     0.01030
C316        C  0.05909716  0.62706032  0.34042450    -0.11150
C317        C  0.04987210  0.57641743  0.34394094     0.03520
C318        C  0.04670438  0.55364884  0.30049623    -0.10570
H319        H  0.05757878  0.65632732  0.21849222     0.09110
H320        H  0.05858453  0.64484301  0.37370048     0.06640
H321        H  0.03733850  0.51443068  0.30268440     0.06490
C322        C  0.45045322  0.88951059  0.37658165     0.03530
C323        C  0.45491513  0.83947350  0.37801781    -0.12620
C324        C  0.45808145  0.81752576  0.33487897     0.01030
C325        C  0.45230632  0.84384792  0.29079036    -0.11150
C326        C  0.45213591  0.89433323  0.28690491     0.03520
C327        C  0.45055237  0.91777860  0.33037318    -0.10570
H328        H  0.46122887  0.81872023  0.41189906     0.09110
H329        H  0.45493198  0.82560854  0.25782258     0.06640
H330        H  0.45259695  0.95728967  0.32811427     0.06490
O331        O  0.07937178  0.87857343  0.99138376    -0.79730
O332        O  0.44191970  0.95910231  0.22549479    -0.81290
O333        O  0.10767393  0.91200083  0.14246403    -0.78310
O334        O  0.47176437  0.82636433  0.12325382    -0.76690
O335        O  0.41168460  0.84699214  0.07627845    -0.78480
O336        O  0.14132558  0.99172504  0.12322020    -0.79410
O337        O  0.48873060  0.89894943  0.20501106    -0.80740
O338        O  0.05907364  0.84335296  0.07054107    -0.81030
Eu339      Eu  0.02315072  0.90442553  0.11728252     2.39200
O340        O  0.44449921  0.93151814  0.12031963    -0.88540
O341        O  0.07768303  0.96026169  0.06284338    -0.92140
C342        C  0.07601052  0.84212157  0.02554219     1.02550
C343        C  0.46166037  0.91976229  0.23623894     1.02370
C344        C  0.14345095  0.94672151  0.13952994     1.02310
C345        C  0.43247155  0.81572251  0.10348972     1.00170
H346        H  0.03856408  0.97911489  0.17464113     0.29920
O347        O  0.02625013  0.98252172  0.14318419    -1.00930
H348        H  0.49205816  0.87674219  0.02662387     0.29950
O349        O  0.49548332  0.90823251  0.03874925    -1.03470
O350        O  0.42280120  0.59495764  0.13931126    -0.80690
O351        O  0.05763281  0.51243337  0.40616172    -0.80230
O352        O  0.07414536  0.56659335  0.17232348    -0.78670
O353        O  0.33962140  0.92911364  0.09254908    -0.82010
O354        O  0.42528015  0.90911116  0.45705929    -0.79860
O355        O  0.15851035  0.54477828  0.03836581    -0.78510
O356        O  0.02524771  0.64529540  0.00593945    -0.80030
O357        O  0.39164630  0.56073148  0.48500101    -0.81960
O358        O  0.08513088  0.62712221  0.05428551    -0.78700
O359        O  0.35668656  0.98161072  0.00542559    -0.81370
O360        O  0.49521904  0.54612791  0.20782025    -0.77110
O361        O  0.14000324  0.99597899  0.47917503    -0.77140
O362        O  0.50518395  0.92745240  0.42384159    -0.76780
O363        O  0.35980206  0.97564627  0.15300042    -0.80280
O364        O  0.44136219  0.62808750  0.05927592    -0.79710
O365        O  0.50919687  0.57220378  0.42414205    -0.78030
Eu366      Eu  0.44769544  0.51024191  0.14716443     2.39770
Eu367      Eu  0.05223033  0.96215385  0.48464276     2.39570
Eu368      Eu  0.08023781  0.53928231  0.08891476     2.38400
Eu369      Eu  0.41761841  0.93467156  0.04150230     2.39880
Eu370      Eu  0.47524584  0.56693968  0.01202870     2.39790
O371        O  0.47338404  0.98878048  0.98670697    -0.92450
O372        O  0.50192459  0.56456967  0.09089967    -0.91340
C373        C  0.42547985  0.63052663  0.10426014     1.02720
C374        C  0.03736857  0.55112048  0.39417763     1.01440
C375        C  0.04021568  0.56315021  0.20888420     1.00830
C376        C  0.32876025  0.94860836  0.13190559     1.02840
C377        C  0.46022943  0.91147975  0.42153720     1.01760
C378        C  0.17019814  0.52424562  0.99985699     1.00610
C379        C  0.06395687  0.65714946  0.02606251     1.00670
C380        C  0.35531491  0.52659632  0.48841575     1.03280
H381        H  0.07701553  0.56396670  0.48706895     0.30650
O382        O  0.05448400  0.54142695  0.00978673    -1.04610
H383        H  0.38987209  0.52538922  0.07247335     0.32700
O384        O  0.42134414  0.51314082  0.06912254    -1.07170
C385        C  0.05861799  0.73776897  0.32340699     0.23990
C386        C  0.03650876  0.70059079  0.29954028    -0.24110
C387        C  0.48696725  0.69987360  0.29164369     0.18900
C388        C  0.45983883  0.73584268  0.30756870     0.23940
C389        C  0.48187708  0.77319611  0.33117358    -0.24060
C390        C  0.03151132  0.77421471  0.33887395     0.18840
F391        F  0.05421151  0.81169816  0.35921409    -0.14020
F392        F  0.10595511  0.73786408  0.33265371    -0.16380
F393        F  0.41235183  0.73525348  0.29871114    -0.16380
F394        F  0.46408951  0.66271125  0.27097007    -0.14020
C395        C  0.25421588  0.94105250  0.31708539     0.23990
C396        C  0.23295603  0.96404692  0.27836486    -0.24110
C397        C  0.22762776  0.51431675  0.27599979     0.18900
C398        C  0.24303300  0.54118352  0.31251155     0.23940
C399        C  0.26437527  0.51813754  0.35115532    -0.24060
C400        C  0.26985491  0.96792198  0.35336824     0.18840
F401        F  0.28806935  0.94444161  0.39203492    -0.14020
F402        F  0.26098892  0.89294143  0.31877454    -0.16380
F403        F  0.23638613  0.58931729  0.31089014    -0.16380
F404        F  0.20988957  0.53778536  0.23703779    -0.14020
C405        C  0.20520030  0.73838709  0.08217821     0.23990
C406        C  0.21145690  0.74902620  0.03085720    -0.24110
C407        C  0.25605855  0.74498110  0.00402885     0.18900
C408        C  0.29479521  0.73109559  0.02866162     0.23940
C409        C  0.28840660  0.72045771  0.08000542    -0.24060
C410        C  0.24371198  0.72422926  0.10667731     0.18840
F411        F  0.23795552  0.71527343  0.15627864    -0.14020
F412        F  0.16113690  0.74024761  0.10816001    -0.16380
F413        F  0.33911556  0.72994478  0.50292773    -0.16380
F414        F  0.26176204  0.75427020  0.45444993    -0.14020
C415        C  0.09576343  0.79668159  0.01347638     0.03530
C416        C  0.14659770  0.79780450  0.50810942    -0.12620
C417        C  0.16795863  0.75440117  0.50663728     0.01030
C418        C  0.13967131  0.71071285  0.50386506    -0.11150
C419        C  0.08908519  0.70734068  0.01349641     0.03520
C420        C  0.06639485  0.75078876  0.01770351    -0.10570
H421        H  0.16920448  0.83126927  0.51207168     0.09110
H422        H  0.15752849  0.67746894  0.50316701     0.06640
H423        H  0.02714876  0.74873655  0.02674668     0.06490
C424        C  0.40333612  0.67544668  0.61383651     0.03530
C425        C  0.43114771  0.72166399  0.61447654    -0.12620
C426        C  0.40730445  0.76502991  0.61282326     0.01030
C427        C  0.35686996  0.76094349  0.61194572    -0.11150
C428        C  0.33144353  0.71691638  0.60531451     0.03520
C429        C  0.35357867  0.67397258  0.60836170    -0.10570
H430        H  0.47061773  0.72405382  0.61298265     0.09110
H431        H  0.33801902  0.79359871  0.60924879     0.06640
H432        H  0.33331151  0.64028660  0.60111137     0.06490
C433        C  0.18848335  0.93639692  0.66128936     0.03530
C434        C  0.18665147  0.93801773  0.71177691    -0.12620
C435        C  0.22961521  0.94037149  0.73411072     0.01030
C436        C  0.27395773  0.93605177  0.70767937    -0.11150
C437        C  0.27812073  0.93838531  0.65696960     0.03520
C438        C  0.23485401  0.93800743  0.63312041    -0.10570
H439        H  0.15263704  0.94336304  0.73274379     0.09110
H440        H  0.30678809  0.93813696  0.72623841     0.06640
H441        H  0.23736620  0.94192920  0.59352019     0.06490
C442        C  0.30997235  0.53834826  0.96823319     0.03530
C443        C  0.31141764  0.54239457  0.91736344    -0.12620
C444        C  0.26806442  0.54128498  0.89565723     0.01080
C445        C  0.22382424  0.54292580  0.92357868    -0.11150
C446        C  0.22040181  0.53607069  0.97439057     0.03520
C447        C  0.26392249  0.53405686  0.49738030    -0.10570
H448        H  0.34536771  0.53919873  0.89514283     0.09110
H449        H  0.19059825  0.54180917  0.90562400     0.06640
H450        H  0.26187856  0.52651606  0.53682591     0.06490
C451        C  0.05249624  0.58284416  0.75430717     0.03530
C452        C  0.05944138  0.63372770  0.75264353    -0.12620
C453        C  0.05885592  0.65543952  0.79601973     0.01030
C454        C  0.05909716  0.62706031  0.84042452    -0.11150
C455        C  0.04987210  0.57641742  0.84394095     0.03520
C456        C  0.04670437  0.55364884  0.80049624    -0.10570
H457        H  0.05757880  0.65632732  0.71849223     0.09110
H458        H  0.05858454  0.64484300  0.87370050     0.06640
H459        H  0.03733849  0.51443067  0.80268440     0.06490
C460        C  0.45045322  0.88951059  0.87658165     0.03530
C461        C  0.45491512  0.83947350  0.87801781    -0.12620
C462        C  0.45808142  0.81752576  0.83487897     0.01030
C463        C  0.45230629  0.84384792  0.79079036    -0.11150
C464        C  0.45213590  0.89433323  0.78690492     0.03520
C465        C  0.45055237  0.91777860  0.83037318    -0.10570
H466        H  0.46122885  0.81872023  0.91189906     0.09110
H467        H  0.45493194  0.82560854  0.75782259     0.06640
H468        H  0.45259696  0.95728968  0.82811427     0.06490
O469        O  0.07937178  0.87857345  0.49138376    -0.79730
O470        O  0.44191969  0.95910232  0.72549479    -0.81290
O471        O  0.10767392  0.91200085  0.64246403    -0.78310
O472        O  0.47176436  0.82636432  0.62325381    -0.76690
O473        O  0.41168459  0.84699215  0.57627843    -0.78480
O474        O  0.14132558  0.99172506  0.62322019    -0.79410
O475        O  0.48873059  0.89894943  0.70501106    -0.80740
O476        O  0.05907364  0.84335298  0.57054106    -0.81030
Eu477      Eu  0.02315071  0.90442555  0.61728251     2.39200
O478        O  0.44449919  0.93151814  0.62031963    -0.88540
O479        O  0.07768303  0.96026171  0.56284338    -0.92140
C480        C  0.07601052  0.84212160  0.52554219     1.02550
C481        C  0.46166036  0.91976229  0.73623894     1.02370
C482        C  0.14345094  0.94672153  0.63952993     1.02310
C483        C  0.43247154  0.81572251  0.60348969     1.00170
H484        H  0.03856407  0.97911490  0.67464113     0.29920
O485        O  0.02625012  0.98252173  0.64318418    -1.00930
H486        H  0.49205815  0.87674219  0.52662386     0.29950
O487        O  0.49548331  0.90823252  0.53874925    -1.03470
O488        O  0.42280122  0.59495764  0.63931125    -0.80690
O489        O  0.05763280  0.51243335  0.90616172    -0.80230
O490        O  0.07414537  0.56659337  0.67232348    -0.78670
O491        O  0.33962139  0.92911365  0.59254907    -0.82010
O492        O  0.42528015  0.90911116  0.95705929    -0.79860
O493        O  0.15851036  0.54477831  0.53836581    -0.78510
O494        O  0.02524770  0.64529542  0.50593944    -0.80030
O495        O  0.39164628  0.56073147  0.98500101    -0.81960
O496        O  0.08513087  0.62712223  0.55428550    -0.78700
O497        O  0.35668655  0.98161073  0.50542558    -0.81370
O498        O  0.49521905  0.54612791  0.70782025    -0.77110
O499        O  0.14000325  0.99597896  0.97917504    -0.77140
O500        O  0.50518396  0.92745240  0.92384159    -0.76780
O501        O  0.35980204  0.97564628  0.65300041    -0.80280
O502        O  0.44136222  0.62808749  0.55927591    -0.79710
O503        O  0.50919685  0.57220379  0.92414205    -0.78030
Eu504      Eu  0.44769545  0.51024191  0.64716442     2.39770
Eu505      Eu  0.05223034  0.96215383  0.98464277     2.39570
Eu506      Eu  0.08023782  0.53928233  0.58891476     2.38400
Eu507      Eu  0.41761840  0.93467156  0.54150229     2.39880
Eu508      Eu  0.47524586  0.56693967  0.51202869     2.39790
O509        O  0.47338404  0.98878049  0.48670696    -0.92450
O510        O  0.50192461  0.56456967  0.59089966    -0.91340
C511        C  0.42547987  0.63052663  0.60426013     1.02720
C512        C  0.03736856  0.55112047  0.89417763     1.01440
C513        C  0.04021569  0.56315022  0.70888420     1.00830
C514        C  0.32876024  0.94860836  0.63190558     1.02840
C515        C  0.46022944  0.91147975  0.92153721     1.01760
C516        C  0.17019815  0.52424565  0.49985698     1.00610
C517        C  0.06395686  0.65714948  0.52606250     1.00670
C518        C  0.35531490  0.52659631  0.98841576     1.03280
H519        H  0.07701553  0.56396668  0.98706895     0.30650
O520        O  0.05448401  0.54142697  0.50978673    -1.04610
H521        H  0.38987211  0.52538922  0.57247334     0.32700
O522        O  0.42134416  0.51314081  0.56912253    -1.07170
C523        C  0.05861801  0.73776896  0.82340701     0.23990
C524        C  0.03650878  0.70059078  0.79954029    -0.24110
C525        C  0.48696723  0.69987360  0.79164368     0.18900
C526        C  0.45983881  0.73584269  0.80756869     0.23940
C527        C  0.48187705  0.77319611  0.83117357    -0.24060
C528        C  0.03151134  0.77421471  0.83887396     0.18840
F529        F  0.05421152  0.81169815  0.85921411    -0.14020
F530        F  0.10595512  0.73786406  0.83265374    -0.16380
F531        F  0.41235181  0.73525349  0.79871113    -0.16380
F532        F  0.46408949  0.66271126  0.77097005    -0.14020
C533        C  0.25421591  0.94105250  0.81708537     0.23990
C534        C  0.23295602  0.96404691  0.77836486    -0.24110
C535        C  0.22762778  0.51431673  0.77599978     0.18900
C536        C  0.24303302  0.54118349  0.81251154     0.23940
C537        C  0.26437527  0.51813750  0.85115532    -0.24060
C538        C  0.26985495  0.96792198  0.85336822     0.18840
F539        F  0.28806942  0.94444162  0.89203487    -0.14020
F540        F  0.26098898  0.89294144  0.81877450    -0.16380
F541        F  0.23638617  0.58931727  0.81089013    -0.16380
F542        F  0.20988962  0.53778535  0.73703776    -0.14020
C543        C  0.20520031  0.73838705  0.58217816     0.23990
C544        C  0.21145690  0.74902618  0.53085715    -0.24110
C545        C  0.25605854  0.74498108  0.50402878     0.18900
C546        C  0.29479520  0.73109556  0.52866153     0.23940
C547        C  0.28840661  0.72045767  0.58000533    -0.24060
C548        C  0.24371200  0.72422921  0.60667724     0.18840
F549        F  0.23795554  0.71527336  0.65627857    -0.14020
F550        F  0.16113692  0.74024757  0.60815997    -0.16380
F551        F  0.33911557  0.72994482  0.00292783    -0.16380
F552        F  0.26176207  0.75427021  0.95445000    -0.14020
C553        C  0.59576344  0.29668160  0.51347639     0.03530
C554        C  0.64659770  0.29780451  0.00810939    -0.12620
C555        C  0.66795863  0.25440117  0.00663724     0.01030
C556        C  0.63967131  0.21071285  0.00386504    -0.11150
C557        C  0.58908520  0.20734069  0.51349641     0.03520
C558        C  0.56639485  0.25078878  0.51770350    -0.10570
H559        H  0.66920447  0.33126928  0.01207162     0.09110
H560        H  0.65752849  0.17746894  0.00316699     0.06640
H561        H  0.52714876  0.24873657  0.52674665     0.06490
C562        C  0.90333611  0.17544668  0.11383650     0.03530
C563        C  0.93114769  0.22166398  0.11447655    -0.12620
C564        C  0.90730444  0.26502990  0.11282326     0.01030
C565        C  0.85686995  0.26094349  0.11194569    -0.11150
C566        C  0.83144353  0.21691638  0.10531447     0.03520
C567        C  0.85357866  0.17397258  0.10836166    -0.10570
H568        H  0.97061772  0.22405381  0.11298267     0.09110
H569        H  0.83801902  0.29359870  0.10924876     0.06640
H570        H  0.83331151  0.14028660  0.10111132     0.06490
C571        C  0.68848335  0.43639693  0.16128937     0.03530
C572        C  0.68665147  0.43801775  0.21177691    -0.12620
C573        C  0.72961521  0.44037151  0.23411072     0.01030
C574        C  0.77395773  0.43605179  0.20767937    -0.11150
C575        C  0.77812073  0.43838531  0.15696960     0.03520
C576        C  0.73485401  0.43800743  0.13312041    -0.10570
H577        H  0.65263704  0.44336307  0.23274379     0.09110
H578        H  0.80678809  0.43813697  0.22623842     0.06640
H579        H  0.73736620  0.44192918  0.09352019     0.06490
C580        C  0.80997235  0.03834828  0.46823319     0.03530
C581        C  0.81141764  0.04239459  0.41736344    -0.12620
C582        C  0.76806442  0.04128500  0.39565723     0.01080
C583        C  0.72382424  0.04292582  0.42357868    -0.11150
C584        C  0.72040181  0.03607070  0.47439057     0.03520
C585        C  0.76392249  0.03405686  0.99738030    -0.10570
H586        H  0.84536772  0.03919876  0.39514283     0.09110
H587        H  0.69059826  0.04180919  0.40562400     0.06640
H588        H  0.76187856  0.02651607  0.03682591     0.06490
C589        C  0.55249625  0.08284416  0.25430716     0.03530
C590        C  0.55944139  0.13372771  0.25264352    -0.12620
C591        C  0.55885593  0.15543953  0.29601972     0.01030
C592        C  0.55909717  0.12706032  0.34042451    -0.11150
C593        C  0.54987210  0.07641743  0.34394095     0.03520
C594        C  0.54670437  0.05364884  0.30049624    -0.10570
H595        H  0.55757882  0.15632732  0.21849222     0.09110
H596        H  0.55858455  0.14484301  0.37370049     0.06640
H597        H  0.53733849  0.01443068  0.30268440     0.06490
C598        C  0.95045322  0.38951059  0.37658165     0.03530
C599        C  0.95491512  0.33947350  0.37801782    -0.12620
C600        C  0.95808142  0.31752575  0.33487898     0.01030
C601        C  0.95230629  0.34384791  0.29079036    -0.11150
C602        C  0.95213589  0.39433323  0.28690492     0.03520
C603        C  0.95055237  0.41777860  0.33037318    -0.10570
H604        H  0.96122886  0.31872023  0.41189906     0.09110
H605        H  0.95493193  0.32560854  0.25782259     0.06640
H606        H  0.95259696  0.45728967  0.32811427     0.06490
O607        O  0.57937177  0.37857344  0.99138375    -0.79730
O608        O  0.94191969  0.45910231  0.22549479    -0.81290
O609        O  0.60767392  0.41200085  0.14246403    -0.78310
O610        O  0.97176435  0.32636431  0.12325381    -0.76690
O611        O  0.91168459  0.34699214  0.07627843    -0.78480
O612        O  0.64132557  0.49172506  0.12322019    -0.79410
O613        O  0.98873058  0.39894942  0.20501106    -0.80740
O614        O  0.55907364  0.34335297  0.07054106    -0.81030
Eu615      Eu  0.52315071  0.40442554  0.11728251     2.39200
O616        O  0.94449919  0.43151813  0.12031963    -0.88540
O617        O  0.57768302  0.46026170  0.06284338    -0.92140
C618        C  0.57601052  0.34212159  0.02554219     1.02550
C619        C  0.96166036  0.41976228  0.23623895     1.02370
C620        C  0.64345094  0.44672153  0.13952994     1.02310
C621        C  0.93247153  0.31572250  0.10348970     1.00170
H622        H  0.53856407  0.47911490  0.17464113     0.29920
O623        O  0.52625012  0.48252173  0.14318418    -1.00930
H624        H  0.99205815  0.37674218  0.02662387     0.29950
O625        O  0.99548330  0.40823250  0.03874925    -1.03470
O626        O  0.92280122  0.09495763  0.13931125    -0.80690
O627        O  0.55763280  0.01243337  0.40616172    -0.80230
O628        O  0.57414537  0.06659337  0.17232348    -0.78670
O629        O  0.83962139  0.42911364  0.09254908    -0.82010
O630        O  0.92528016  0.40911116  0.45705929    -0.79860
O631        O  0.65851036  0.04477830  0.03836581    -0.78510
O632        O  0.52524770  0.14529541  0.00593945    -0.80030
O633        O  0.89164629  0.06073149  0.48500101    -0.81960
O634        O  0.58513088  0.12712222  0.05428550    -0.78700
O635        O  0.85668655  0.48161072  0.00542559    -0.81370
O636        O  0.99521905  0.04612791  0.20782025    -0.77110
O637        O  0.64000326  0.49597898  0.47917503    -0.77140
O638        O  0.00518396  0.42745240  0.42384159    -0.76780
O639        O  0.85980205  0.47564627  0.15300042    -0.80280
O640        O  0.94136222  0.12808748  0.05927591    -0.79710
O641        O  0.00919685  0.07220380  0.42414205    -0.78030
Eu642      Eu  0.94769545  0.01024191  0.14716443     2.39770
Eu643      Eu  0.55223034  0.46215384  0.48464276     2.39570
Eu644      Eu  0.58023782  0.03928232  0.08891476     2.38400
Eu645      Eu  0.91761840  0.43467155  0.04150230     2.39880
Eu646      Eu  0.97524586  0.06693967  0.01202870     2.39790
O647        O  0.97338403  0.48878048  0.98670697    -0.92450
O648        O  0.00192461  0.06456966  0.09089967    -0.91340
C649        C  0.92547987  0.13052662  0.10426013     1.02720
C650        C  0.53736856  0.05112048  0.39417763     1.01440
C651        C  0.54021569  0.06315022  0.20888420     1.00830
C652        C  0.82876024  0.44860836  0.13190559     1.02840
C653        C  0.96022944  0.41147975  0.42153720     1.01760
C654        C  0.67019816  0.02424564  0.99985699     1.00610
C655        C  0.56395686  0.15714947  0.02606251     1.00670
C656        C  0.85531490  0.02659633  0.48841576     1.03280
H657        H  0.57701552  0.06396670  0.48706895     0.30650
O658        O  0.55448401  0.04142696  0.00978673    -1.04610
H659        H  0.88987211  0.02538922  0.07247334     0.32700
O660        O  0.92134416  0.01314081  0.06912254    -1.07170
C661        C  0.55861802  0.23776897  0.32340699     0.23990
C662        C  0.53650879  0.20059079  0.29954028    -0.24110
C663        C  0.98696723  0.19987360  0.29164368     0.18900
C664        C  0.95983881  0.23584268  0.30756869     0.23940
C665        C  0.98187705  0.27319610  0.33117357    -0.24060
C666        C  0.53151135  0.27421472  0.33887394     0.18840
F667        F  0.55421154  0.31169817  0.35921408    -0.14020
F668        F  0.60595514  0.23786408  0.33265371    -0.16380
F669        F  0.91235180  0.23525347  0.29871114    -0.16380
F670        F  0.96408949  0.16271125  0.27097006    -0.14020
C671        C  0.75421590  0.44105253  0.31708538     0.23990
C672        C  0.73295603  0.46404694  0.27836486    -0.24110
C673        C  0.72762776  0.01431673  0.27599979     0.18900
C674        C  0.74303300  0.04118350  0.31251155     0.23940
C675        C  0.76437527  0.01813753  0.35115532    -0.24060
C676        C  0.76985494  0.46792201  0.35336822     0.18840
F677        F  0.78806941  0.44444166  0.39203488    -0.14020
F678        F  0.76098897  0.39294147  0.31877451    -0.16380
F679        F  0.73638612  0.08931727  0.31089015    -0.16380
F680        F  0.70988958  0.03778534  0.23703778    -0.14020
C681        C  0.70520032  0.23838711  0.08217812     0.23990
C682        C  0.71145690  0.24902620  0.03085710    -0.24110
C683        C  0.75605853  0.24498105  0.00402873     0.18900
C684        C  0.79479519  0.23109552  0.02866149     0.23940
C685        C  0.78840660  0.22045767  0.08000529    -0.24060
C686        C  0.74371201  0.22422926  0.10667720     0.18840
F687        F  0.73795556  0.21527345  0.15627853    -0.14020
F688        F  0.66113694  0.24024768  0.10815993    -0.16380
F689        F  0.83911560  0.22994490  0.50292787    -0.16380
F690        F  0.76176209  0.25427029  0.45445005    -0.14020
C691        C  0.59576342  0.29668160  0.01347637     0.03530
C692        C  0.64659771  0.29780449  0.50810947    -0.12620
C693        C  0.66795864  0.25440116  0.50663736     0.01030
C694        C  0.63967133  0.21071284  0.50386513    -0.11150
C695        C  0.58908518  0.20734069  0.01349639     0.03520
C696        C  0.56639484  0.25078878  0.01770352    -0.10570
H697        H  0.66920448  0.33126926  0.51207174     0.09110
H698        H  0.65752851  0.17746893  0.50316709     0.06640
H699        H  0.52714875  0.24873656  0.02674672     0.06490
C700        C  0.90333611  0.17544670  0.61383655     0.03530
C701        C  0.93114771  0.22166400  0.61447656    -0.12620
C702        C  0.90730446  0.26502992  0.61282331     0.01030
C703        C  0.85686996  0.26094351  0.61194585    -0.11150
C704        C  0.83144352  0.21691640  0.60531465     0.03520
C705        C  0.85357865  0.17397260  0.60836180    -0.10570
H706        H  0.97061774  0.22405383  0.61298261     0.09110
H707        H  0.83801903  0.29359873  0.60924894     0.06640
H708        H  0.83331148  0.14028662  0.60111148     0.06490
C709        C  0.68848336  0.43639692  0.66128936     0.03530
C710        C  0.68665148  0.43801773  0.71177691    -0.12620
C711        C  0.72961522  0.44037148  0.73411072     0.01030
C712        C  0.77395775  0.43605176  0.70767936    -0.11150
C713        C  0.77812074  0.43838531  0.65696960     0.03520
C714        C  0.73485402  0.43800743  0.63312040    -0.10570
H715        H  0.65263705  0.44336304  0.73274379     0.09110
H716        H  0.80678810  0.43813694  0.72623841     0.06640
H717        H  0.73736621  0.44192920  0.59352019     0.06490
C718        C  0.80997237  0.03834827  0.96823319     0.03530
C719        C  0.81141765  0.04239458  0.91736344    -0.12620
C720        C  0.76806443  0.04128499  0.89565723     0.01080
C721        C  0.72382425  0.04292581  0.92357868    -0.11150
C722        C  0.72040183  0.03607070  0.97439056     0.03520
C723        C  0.76392248  0.03405686  0.49738030    -0.10570
H724        H  0.84536773  0.03919874  0.89514283     0.09110
H725        H  0.69059827  0.04180919  0.90562400     0.06640
H726        H  0.76187854  0.02651608  0.53682591     0.06490
C727        C  0.55249623  0.08284416  0.75430716     0.03530
C728        C  0.55944135  0.13372771  0.75264352    -0.12620
C729        C  0.55885589  0.15543953  0.79601972     0.01030
C730        C  0.55909715  0.12706032  0.84042451    -0.11150
C731        C  0.54987210  0.07641743  0.84394095     0.03520
C732        C  0.54670437  0.05364884  0.80049624    -0.10570
H733        H  0.55757877  0.15632732  0.71849223     0.09110
H734        H  0.55858453  0.14484301  0.87370049     0.06640
H735        H  0.53733850  0.01443067  0.80268440     0.06490
C736        C  0.95045321  0.38951059  0.87658165     0.03530
C737        C  0.95491511  0.33947350  0.87801781    -0.12620
C738        C  0.95808143  0.31752575  0.83487897     0.01030
C739        C  0.95230631  0.34384792  0.79079035    -0.11150
C740        C  0.95213590  0.39433323  0.78690491     0.03520
C741        C  0.95055237  0.41777860  0.83037318    -0.10570
H742        H  0.96122884  0.31872022  0.91189906     0.09110
H743        H  0.95493197  0.32560854  0.75782258     0.06640
H744        H  0.95259695  0.45728967  0.82811427     0.06490
O745        O  0.57937178  0.37857344  0.49138375    -0.79730
O746        O  0.94191970  0.45910232  0.72549479    -0.81290
O747        O  0.60767393  0.41200084  0.64246403    -0.78310
O748        O  0.97176438  0.32636433  0.62325382    -0.76690
O749        O  0.91168460  0.34699215  0.57627845    -0.78480
O750        O  0.64132559  0.49172505  0.62322019    -0.79410
O751        O  0.98873060  0.39894943  0.70501106    -0.80740
O752        O  0.55907365  0.34335297  0.57054106    -0.81030
Eu753      Eu  0.52315072  0.40442555  0.61728251     2.39200
O754        O  0.94449920  0.43151814  0.62031963    -0.88540
O755        O  0.57768304  0.46026170  0.56284338    -0.92140
C756        C  0.57601053  0.34212159  0.52554219     1.02550
C757        C  0.96166037  0.41976229  0.73623894     1.02370
C758        C  0.64345095  0.44672152  0.63952994     1.02310
C759        C  0.93247155  0.31572252  0.60348972     1.00170
H760        H  0.53856408  0.47911490  0.67464113     0.29920
O761        O  0.52625013  0.48252173  0.64318418    -1.00930
H762        H  0.99205816  0.37674219  0.52662386     0.29950
O763        O  0.99548332  0.40823252  0.53874925    -1.03470
O764        O  0.92280121  0.09495764  0.63931126    -0.80690
O765        O  0.55763281  0.01243336  0.90616172    -0.80230
O766        O  0.57414536  0.06659336  0.67232348    -0.78670
O767        O  0.83962140  0.42911365  0.59254907    -0.82010
O768        O  0.92528014  0.40911116  0.95705929    -0.79860
O769        O  0.65851035  0.04477830  0.53836581    -0.78510
O770        O  0.52524771  0.14529542  0.50593944    -0.80030
O771        O  0.89164630  0.06073147  0.98500101    -0.81960
O772        O  0.58513087  0.12712222  0.55428550    -0.78700
O773        O  0.85668656  0.48161073  0.50542558    -0.81370
O774        O  0.99521904  0.04612791  0.70782025    -0.77110
O775        O  0.64000324  0.49597897  0.97917503    -0.77140
O776        O  0.00518394  0.42745239  0.92384159    -0.76780
O777        O  0.85980206  0.47564628  0.65300041    -0.80280
O778        O  0.94136221  0.12808751  0.55927593    -0.79710
O779        O  0.00919687  0.07220378  0.92414205    -0.78030
Eu780      Eu  0.94769544  0.01024192  0.64716443     2.39770
Eu781      Eu  0.55223033  0.46215384  0.98464276     2.39570
Eu782      Eu  0.58023781  0.03928232  0.58891476     2.38400
Eu783      Eu  0.91761841  0.43467156  0.54150229     2.39880
Eu784      Eu  0.97524585  0.06693969  0.51202870     2.39790
O785        O  0.97338404  0.48878049  0.48670696    -0.92450
O786        O  0.00192460  0.06456967  0.59089967    -0.91340
C787        C  0.92547986  0.13052664  0.60426015     1.02720
C788        C  0.53736856  0.05112047  0.89417763     1.01440
C789        C  0.54021568  0.06315022  0.70888420     1.00830
C790        C  0.82876025  0.44860836  0.63190558     1.02840
C791        C  0.96022942  0.41147974  0.92153721     1.01760
C792        C  0.67019814  0.02424564  0.49985699     1.00610
C793        C  0.56395686  0.15714947  0.52606251     1.00670
C794        C  0.85531491  0.02659631  0.98841576     1.03280
H795        H  0.57701553  0.06396670  0.98706895     0.30650
O796        O  0.55448400  0.04142696  0.50978673    -1.04610
H797        H  0.88987210  0.02538923  0.57247335     0.32700
O798        O  0.92134415  0.01314082  0.56912254    -1.07170
C799        C  0.55861798  0.23776896  0.82340700     0.23990
C800        C  0.53650875  0.20059078  0.79954029    -0.24110
C801        C  0.98696723  0.19987359  0.79164370     0.18900
C802        C  0.95983881  0.23584268  0.80756869     0.23940
C803        C  0.98187705  0.27319610  0.83117357    -0.24060
C804        C  0.53151131  0.27421471  0.83887395     0.18840
F805        F  0.55421150  0.31169816  0.85921410    -0.14020
F806        F  0.60595510  0.23786408  0.83265372    -0.16380
F807        F  0.91235181  0.23525348  0.79871113    -0.16380
F808        F  0.96408949  0.16271125  0.77097007    -0.14020
C809        C  0.75421593  0.44105250  0.81708537     0.23990
C810        C  0.73295604  0.46404690  0.77836486    -0.24110
C811        C  0.72762778  0.01431673  0.77599978     0.18900
C812        C  0.74303302  0.04118350  0.81251155     0.23940
C813        C  0.76437528  0.01813751  0.85115532    -0.24060
C814        C  0.76985497  0.46792198  0.85336821     0.18840
F815        F  0.78806944  0.44444162  0.89203487    -0.14020
F816        F  0.76098902  0.39294144  0.81877449    -0.16380
F817        F  0.73638617  0.08931727  0.81089014    -0.16380
F818        F  0.70988961  0.03778535  0.73703777    -0.14020
C819        C  0.70520028  0.23838703  0.58217826     0.23990
C820        C  0.71145690  0.24902619  0.53085725    -0.24110
C821        C  0.75605856  0.24498113  0.50402889     0.18900
C822        C  0.79479522  0.23109563  0.52866166     0.23940
C823        C  0.78840660  0.22045771  0.58000546    -0.24060
C824        C  0.74371197  0.22422921  0.60667735     0.18840
F825        F  0.73795550  0.21527334  0.65627868    -0.14020
F826        F  0.66113688  0.24024751  0.60816005    -0.16380
F827        F  0.83911554  0.22994470  0.00292768    -0.16380
F828        F  0.76176203  0.25427012  0.95444988    -0.14020
C829        C  0.59576342  0.79668160  0.51347640     0.03530
C830        C  0.64659770  0.79780450  0.00810944    -0.12620
C831        C  0.66795863  0.75440117  0.00663732     0.01030
C832        C  0.63967132  0.71071285  0.00386510    -0.11150
C833        C  0.58908519  0.70734069  0.51349641     0.03520
C834        C  0.56639484  0.75078878  0.51770351    -0.10570
H835        H  0.66920447  0.83126927  0.01207170     0.09110
H836        H  0.65752850  0.67746894  0.00316706     0.06640
H837        H  0.52714875  0.74873657  0.52674665     0.06490
C838        C  0.90333610  0.67544668  0.11383654     0.03530
C839        C  0.93114770  0.72166398  0.11447656    -0.12620
C840        C  0.90730445  0.76502990  0.11282330     0.01030
C841        C  0.85686995  0.76094350  0.11194581    -0.11150
C842        C  0.83144351  0.71691639  0.10531460     0.03520
C843        C  0.85357864  0.67397259  0.10836176    -0.10570
H844        H  0.97061772  0.72405381  0.11298263     0.09110
H845        H  0.83801902  0.79359871  0.10924889     0.06640
H846        H  0.83331148  0.64028661  0.10111143     0.06490
C847        C  0.68848336  0.93639692  0.16128936     0.03530
C848        C  0.68665148  0.93801773  0.21177691    -0.12620
C849        C  0.72961522  0.94037149  0.23411072     0.01030
C850        C  0.77395775  0.93605177  0.20767937    -0.11150
C851        C  0.77812074  0.93838531  0.15696960     0.03520
C852        C  0.73485402  0.93800743  0.13312041    -0.10570
H853        H  0.65263705  0.94336304  0.23274379     0.09110
H854        H  0.80678810  0.93813696  0.22623841     0.06640
H855        H  0.73736621  0.94192919  0.09352019     0.06490
C856        C  0.80997236  0.53834828  0.46823318     0.03530
C857        C  0.81141765  0.54239460  0.41736343    -0.12620
C858        C  0.76806443  0.54128503  0.39565722     0.01080
C859        C  0.72382425  0.54292585  0.42357868    -0.11150
C860        C  0.72040183  0.53607071  0.47439056     0.03520
C861        C  0.76392248  0.53405686  0.99738030    -0.10570
H862        H  0.84536773  0.53919877  0.39514282     0.09110
H863        H  0.69059827  0.54180922  0.40562400     0.06640
H864        H  0.76187854  0.52651608  0.03682591     0.06490
C865        C  0.55249624  0.58284416  0.25430716     0.03530
C866        C  0.55944137  0.63372771  0.25264351    -0.12620
C867        C  0.55885592  0.65543953  0.29601972     0.01030
C868        C  0.55909717  0.62706032  0.34042450    -0.11150
C869        C  0.54987212  0.57641742  0.34394094     0.03520
C870        C  0.54670438  0.55364884  0.30049623    -0.10570
H871        H  0.55757879  0.65632732  0.21849222     0.09110
H872        H  0.55858455  0.64484300  0.37370048     0.06640
H873        H  0.53733850  0.51443067  0.30268439     0.06490
C874        C  0.95045321  0.88951059  0.37658165     0.03530
C875        C  0.95491512  0.83947350  0.37801781    -0.12620
C876        C  0.95808142  0.81752575  0.33487897     0.01030
C877        C  0.95230630  0.84384791  0.29079036    -0.11150
C878        C  0.95213590  0.89433322  0.28690491     0.03520
C879        C  0.95055237  0.91777860  0.33037318    -0.10570
H880        H  0.96122885  0.81872022  0.41189906     0.09110
H881        H  0.95493195  0.82560853  0.25782258     0.06640
H882        H  0.95259696  0.95728967  0.32811426     0.06490
O883        O  0.57937177  0.87857344  0.99138376    -0.79730
O884        O  0.94191970  0.95910231  0.22549479    -0.81290
O885        O  0.60767393  0.91200084  0.14246403    -0.78310
O886        O  0.97176437  0.82636431  0.12325382    -0.76690
O887        O  0.91168459  0.84699214  0.07627844    -0.78480
O888        O  0.64132558  0.99172506  0.12322020    -0.79410
O889        O  0.98873060  0.89894942  0.20501106    -0.80740
O890        O  0.55907364  0.84335297  0.07054107    -0.81030
Eu891      Eu  0.52315072  0.90442555  0.11728252     2.39200
O892        O  0.94449921  0.93151813  0.12031963    -0.88540
O893        O  0.57768303  0.96026170  0.06284338    -0.92140
C894        C  0.57601052  0.84212159  0.02554219     1.02550
C895        C  0.96166037  0.91976228  0.23623894     1.02370
C896        C  0.64345095  0.94672152  0.13952994     1.02310
C897        C  0.93247154  0.81572250  0.10348972     1.00170
H898        H  0.53856408  0.97911490  0.17464113     0.29920
O899        O  0.52625013  0.98252173  0.14318419    -1.00930
H900        H  0.99205816  0.87674218  0.02662386     0.29950
O901        O  0.99548332  0.90823250  0.03874925    -1.03470
O902        O  0.92280120  0.59495763  0.13931126    -0.80690
O903        O  0.55763282  0.51243336  0.40616171    -0.80230
O904        O  0.57414536  0.56659337  0.17232347    -0.78670
O905        O  0.83962140  0.92911364  0.09254908    -0.82010
O906        O  0.92528015  0.90911116  0.45705929    -0.79860
O907        O  0.65851035  0.54477829  0.03836581    -0.78510
O908        O  0.52524770  0.64529541  0.00593944    -0.80030
O909        O  0.89164629  0.56073148  0.48500101    -0.81960
O910        O  0.58513087  0.62712222  0.05428550    -0.78700
O911        O  0.85668656  0.98161071  0.00542559    -0.81370
O912        O  0.99521904  0.54612791  0.20782025    -0.77110
O913        O  0.64000324  0.99597898  0.47917504    -0.77140
O914        O  0.00518395  0.92745240  0.42384159    -0.76780
O915        O  0.85980206  0.97564627  0.15300041    -0.80280
O916        O  0.94136220  0.62808749  0.05927593    -0.79710
O917        O  0.00919686  0.57220379  0.42414205    -0.78030
Eu918      Eu  0.94769544  0.51024191  0.14716443     2.39770
Eu919      Eu  0.55223033  0.96215384  0.48464277     2.39570
Eu920      Eu  0.58023781  0.53928232  0.08891475     2.38400
Eu921      Eu  0.91761842  0.93467155  0.04150229     2.39880
Eu922      Eu  0.97524585  0.56693967  0.01202871     2.39790
O923        O  0.97338405  0.98878047  0.98670696    -0.92450
O924        O  0.00192460  0.56456966  0.09089967    -0.91340
C925        C  0.92547985  0.63052662  0.10426014     1.02720
C926        C  0.53736858  0.55112047  0.39417762     1.01440
C927        C  0.54021568  0.56315022  0.20888419     1.00830
C928        C  0.82876025  0.94860836  0.13190558     1.02840
C929        C  0.96022943  0.91147975  0.42153720     1.01760
C930        C  0.67019814  0.52424563  0.99985698     1.00610
C931        C  0.56395686  0.65714947  0.02606250     1.00670
C932        C  0.85531491  0.52659632  0.48841575     1.03280
H933        H  0.57701554  0.56396669  0.48706894     0.30650
O934        O  0.55448400  0.54142696  0.00978672    -1.04610
H935        H  0.88987209  0.52538922  0.07247335     0.32700
O936        O  0.92134414  0.51314081  0.06912254    -1.07170
C937        C  0.55861801  0.73776897  0.32340699     0.23990
C938        C  0.53650878  0.70059079  0.29954029    -0.24110
C939        C  0.98696724  0.69987360  0.29164368     0.18900
C940        C  0.95983882  0.73584268  0.30756869     0.23940
C941        C  0.98187705  0.77319610  0.33117357    -0.24060
C942        C  0.53151134  0.77421472  0.33887395     0.18840
F943        F  0.55421154  0.81169817  0.35921408    -0.14020
F944        F  0.60595513  0.73786408  0.33265371    -0.16380
F945        F  0.91235181  0.73525347  0.29871113    -0.16380
F946        F  0.96408950  0.66271126  0.27097005    -0.14020
C947        C  0.75421594  0.94105252  0.31708537     0.23990
C948        C  0.73295604  0.96404692  0.27836486    -0.24110
C949        C  0.72762778  0.51431676  0.27599978     0.18900
C950        C  0.74303302  0.54118353  0.31251154     0.23940
C951        C  0.76437528  0.51813755  0.35115532    -0.24060
C952        C  0.76985497  0.96792200  0.35336821     0.18840
F953        F  0.78806946  0.94444165  0.39203486    -0.14020
F954        F  0.76098904  0.89294146  0.31877449    -0.16380
F955        F  0.73638618  0.58931731  0.31089012    -0.16380
F956        F  0.70988962  0.53778538  0.23703776    -0.14020
C957        C  0.70520029  0.73838708  0.08217821     0.23990
C958        C  0.71145689  0.74902620  0.03085720    -0.24110
C959        C  0.75605854  0.74498110  0.00402884     0.18900
C960        C  0.79479520  0.73109559  0.02866161     0.23940
C961        C  0.78840659  0.72045770  0.08000542    -0.24060
C962        C  0.74371198  0.72422925  0.10667731     0.18840
F963        F  0.73795551  0.71527342  0.15627864    -0.14020
F964        F  0.66113690  0.74024761  0.10816001    -0.16380
F965        F  0.83911557  0.72994486  0.50292788    -0.16380
F966        F  0.76176207  0.75427026  0.45445005    -0.14020
C967        C  0.59576342  0.79668160  0.01347638     0.03530
C968        C  0.64659770  0.79780450  0.50810948    -0.12620
C969        C  0.66795863  0.75440117  0.50663737     0.01030
C970        C  0.63967132  0.71071285  0.50386513    -0.11150
C971        C  0.58908519  0.70734069  0.01349640     0.03520
C972        C  0.56639484  0.75078878  0.01770351    -0.10570
H973        H  0.66920446  0.83126927  0.51207175     0.09110
H974        H  0.65752851  0.67746894  0.50316709     0.06640
H975        H  0.52714875  0.74873657  0.02674667     0.06490
C976        C  0.90333610  0.67544669  0.61383655     0.03530
C977        C  0.93114770  0.72166400  0.61447655    -0.12620
C978        C  0.90730445  0.76502991  0.61282331     0.01030
C979        C  0.85686995  0.76094351  0.61194585    -0.11150
C980        C  0.83144350  0.71691639  0.60531466     0.03520
C981        C  0.85357864  0.67397259  0.60836180    -0.10570
H982        H  0.97061773  0.72405383  0.61298261     0.09110
H983        H  0.83801902  0.79359872  0.60924894     0.06640
H984        H  0.83331147  0.64028662  0.60111148     0.06490
C985        C  0.68848334  0.93639692  0.66128936     0.03530
C986        C  0.68665147  0.93801774  0.71177691    -0.12620
C987        C  0.72961521  0.94037150  0.73411072     0.01030
C988        C  0.77395774  0.93605178  0.70767936    -0.11150
C989        C  0.77812073  0.93838531  0.65696959     0.03520
C990        C  0.73485401  0.93800743  0.63312041    -0.10570
H991        H  0.65263704  0.94336305  0.73274379     0.09110
H992        H  0.80678809  0.93813696  0.72623841     0.06640
H993        H  0.73736619  0.94192920  0.59352019     0.06490
C994        C  0.80997235  0.53834827  0.96823319     0.03530
C995        C  0.81141764  0.54239457  0.91736344    -0.12620
C996        C  0.76806443  0.54128498  0.89565723     0.01080
C997        C  0.72382424  0.54292581  0.92357868    -0.11150
C998        C  0.72040182  0.53607069  0.97439056     0.03520
C999        C  0.76392249  0.53405686  0.49738030    -0.10570
H1000       H  0.84536772  0.53919874  0.89514283     0.09110
H1001       H  0.69059826  0.54180917  0.90562399     0.06640
H1002       H  0.76187855  0.52651606  0.53682591     0.06490
C1003       C  0.55249624  0.58284416  0.75430716     0.03530
C1004       C  0.55944135  0.63372771  0.75264352    -0.12620
C1005       C  0.55885589  0.65543953  0.79601972     0.01030
C1006       C  0.55909714  0.62706032  0.84042451    -0.11150
C1007       C  0.54987209  0.57641743  0.84394094     0.03520
C1008       C  0.54670438  0.55364884  0.80049623    -0.10570
H1009       H  0.55757877  0.65632732  0.71849222     0.09110
H1010       H  0.55858451  0.64484301  0.87370049     0.06640
H1011       H  0.53733851  0.51443067  0.80268439     0.06490
C1012       C  0.95045322  0.88951059  0.87658165     0.03530
C1013       C  0.95491513  0.83947350  0.87801781    -0.12620
C1014       C  0.95808145  0.81752576  0.83487896     0.01030
C1015       C  0.95230632  0.84384792  0.79079035    -0.11150
C1016       C  0.95213591  0.89433323  0.78690491     0.03520
C1017       C  0.95055238  0.91777860  0.83037318    -0.10570
H1018       H  0.96122887  0.81872022  0.91189905     0.09110
H1019       H  0.95493198  0.82560854  0.75782258     0.06640
H1020       H  0.95259695  0.95728967  0.82811426     0.06490
O1021       O  0.57937176  0.87857344  0.49138376    -0.79730
O1022       O  0.94191970  0.95910232  0.72549479    -0.81290
O1023       O  0.60767391  0.91200084  0.64246403    -0.78310
O1024       O  0.97176437  0.82636433  0.62325381    -0.76690
O1025       O  0.91168459  0.84699215  0.57627844    -0.78480
O1026       O  0.64132557  0.99172506  0.62322020    -0.79410
O1027       O  0.98873060  0.89894943  0.70501105    -0.80740
O1028       O  0.55907363  0.84335297  0.57054107    -0.81030
Eu1029     Eu  0.52315070  0.90442554  0.61728252     2.39200
O1030       O  0.94449920  0.93151814  0.62031962    -0.88540
O1031       O  0.57768302  0.96026170  0.56284339    -0.92140
C1032       C  0.57601051  0.84212159  0.52554220     1.02550
C1033       C  0.96166037  0.91976229  0.73623894     1.02370
C1034       C  0.64345094  0.94672152  0.63952994     1.02310
C1035       C  0.93247154  0.81572252  0.60348971     1.00170
H1036       H  0.53856406  0.97911490  0.67464113     0.29920
O1037       O  0.52625011  0.98252173  0.64318419    -1.00930
H1038       H  0.99205815  0.87674219  0.52662386     0.29950
O1039       O  0.99548331  0.90823252  0.53874924    -1.03470
O1040       O  0.92280120  0.59495764  0.63931126    -0.80690
O1041       O  0.55763280  0.51243336  0.90616171    -0.80230
O1042       O  0.57414537  0.56659336  0.67232348    -0.78670
O1043       O  0.83962139  0.92911365  0.59254907    -0.82010
O1044       O  0.92528016  0.90911115  0.95705929    -0.79860
O1045       O  0.65851036  0.54477830  0.53836581    -0.78510
O1046       O  0.52524772  0.64529541  0.50593943    -0.80030
O1047       O  0.89164629  0.56073148  0.98500102    -0.81960
O1048       O  0.58513088  0.62712222  0.55428550    -0.78700
O1049       O  0.85668656  0.98161073  0.50542558    -0.81370
O1050       O  0.99521905  0.54612791  0.70782025    -0.77110
O1051       O  0.64000325  0.99597898  0.97917504    -0.77140
O1052       O  0.00518396  0.92745239  0.92384159    -0.76780
O1053       O  0.85980205  0.97564628  0.65300041    -0.80280
O1054       O  0.94136220  0.62808750  0.55927593    -0.79710
O1055       O  0.00919685  0.57220378  0.92414206    -0.78030
Eu1056     Eu  0.94769545  0.51024192  0.64716443     2.39770
Eu1057     Eu  0.55223034  0.96215384  0.98464277     2.39570
Eu1058     Eu  0.58023782  0.53928232  0.58891476     2.38400
Eu1059     Eu  0.91761841  0.93467156  0.54150229     2.39880
Eu1060     Eu  0.97524585  0.56693969  0.51202870     2.39790
O1061       O  0.97338404  0.98878049  0.48670696    -0.92450
O1062       O  0.00192460  0.56456968  0.59089967    -0.91340
C1063       C  0.92547985  0.63052664  0.60426015     1.02720
C1064       C  0.53736856  0.55112047  0.89417763     1.01440
C1065       C  0.54021569  0.56315022  0.70888419     1.00830
C1066       C  0.82876024  0.94860837  0.63190558     1.02840
C1067       C  0.96022944  0.91147974  0.92153720     1.01760
C1068       C  0.67019816  0.52424564  0.49985698     1.00610
C1069       C  0.56395687  0.65714947  0.52606250     1.00670
C1070       C  0.85531490  0.52659632  0.98841576     1.03280
H1071       H  0.57701552  0.56396670  0.98706894     0.30650
O1072       O  0.55448402  0.54142695  0.50978672    -1.04610
H1073       H  0.88987210  0.52538923  0.57247335     0.32700
O1074       O  0.92134415  0.51314082  0.56912254    -1.07170
C1075       C  0.55861798  0.73776896  0.82340699     0.23990
C1076       C  0.53650875  0.70059079  0.79954028    -0.24110
C1077       C  0.98696726  0.69987360  0.79164368     0.18900
C1078       C  0.95983884  0.73584268  0.80756868     0.23940
C1079       C  0.98187707  0.77319611  0.83117357    -0.24060
C1080       C  0.53151132  0.77421471  0.83887395     0.18840
F1081       F  0.55421151  0.81169816  0.85921409    -0.14020
F1082       F  0.60595510  0.73786407  0.83265371    -0.16380
F1083       F  0.91235184  0.73525349  0.79871111    -0.16380
F1084       F  0.96408952  0.66271126  0.77097004    -0.14020
C1085       C  0.75421592  0.94105251  0.81708537     0.23990
C1086       C  0.73295603  0.96404692  0.77836486    -0.24110
C1087       C  0.72762778  0.51431672  0.77599978     0.18900
C1088       C  0.74303302  0.54118348  0.81251155     0.23940
C1089       C  0.76437528  0.51813751  0.85115532    -0.24060
C1090       C  0.76985496  0.96792198  0.85336822     0.18840
F1091       F  0.78806943  0.94444163  0.89203487    -0.14020
F1092       F  0.76098900  0.89294144  0.81877449    -0.16380
F1093       F  0.73638616  0.58931726  0.81089013    -0.16380
F1094       F  0.70988961  0.53778534  0.73703777    -0.14020
C1095       C  0.70520028  0.73838706  0.58217826     0.23990
C1096       C  0.71145689  0.74902620  0.53085725    -0.24110
C1097       C  0.75605854  0.74498112  0.50402890     0.18900
C1098       C  0.79479520  0.73109561  0.52866167     0.23940
C1099       C  0.78840659  0.72045771  0.58000547    -0.24060
C1100       C  0.74371196  0.72422923  0.60667736     0.18840
F1101       F  0.73795549  0.71527337  0.65627869    -0.14020
F1102       F  0.66113687  0.74024756  0.60816005    -0.16380
F1103       F  0.83911557  0.72994481  0.00292782    -0.16380
F1104       F  0.76176206  0.75427021  0.95444999    -0.14020
loop_ 
_geom_bond_atom_site_label_1 
_geom_bond_atom_site_label_2 
_geom_bond_distance 
_geom_bond_site_symmetry_2 
_ccdc_geom_bond_type 
C1            C6   1.424       .  A
C1          C140   1.395       .  A
C1          C204   1.475       .  S
C2            C3   1.392       .  A
C2          C139   1.395       .  A
C2            H7   1.085       .  S
C3            C4   1.385       .  A
C3          C130   1.447       .  S
C4          C143   1.389       .  A
C4            H8   1.087       .  S
C5            C6   1.419       .  A
C5          C142   1.389       .  A
C5          C241   1.479       .  S
C6            H9   1.083       .  S
C10          C11   1.427       .  A
C10          C15   1.396       .  A
C10          C97   1.475       .  S
C11          C12   1.424       .  A
C11          H16   1.083       .  S
C12          C13   1.391       .  A
C12          C69   1.486       .  S
C13          C14   1.382       .  A
C13          H17   1.086       .  S
C14          C15   1.388       .  A
C14         C133   1.446       .  S
C15          H18   1.086       .  S
C19          C20   1.397       .  A
C19          C24   1.426       .  A
C19          C68   1.476       .  S
C20          C21   1.392       .  A
C20          H25   1.085       .  S
C21          C22   1.385       .  A
C21         C120   1.452       .  S
C22          C23   1.389       .  A
C22          H26   1.086       .  S
C23          C24   1.422       .  A
C23         C100   1.485       .  S
C24          H27   1.083       .  S
C28          C29   1.395       .  A
C28         C171   1.424       .  A
C28         C104   1.474       .  S
C29          C30   1.392       .  A
C29          H34   1.085       .  S
C30          C31   1.386       .  A
C30         C123   1.452       .  S
C31          C32   1.390       .  A
C31          H35   1.086       .  S
C32         C171   1.419       .  A
C32         C240   1.481       .  S
C33         C166   1.424       .  A
C33         C170   1.419       .  A
C33          H36   1.083   1_556  S
C37          C38   1.396       .  A
C37          C42   1.423       .  A
C37          C99   1.476       .  S
C38          C39   1.395       .  A
C38          H43   1.085       .  S
C39          C40   1.387       .  A
C39         C110   1.455       .  S
C40          C41   1.389       .  A
C40          H44   1.086       .  S
C41          C42   1.419       .  A
C41          C98   1.480       .  S
C42          H45   1.083       .  S
C46          C47   1.398       .  A
C46          C51   1.426       .  A
C46         C101   1.475       .  S
C47          C48   1.392       .  A
C47          H52   1.085       .  S
C48          C49   1.385       .  A
C48         C113   1.456       .  S
C49          C50   1.389       .  A
C49          H53   1.086       .  S
C50          C51   1.422       .  A
C50          C67   1.486       .  S
C51          H54   1.083       .  S
O55          C66   1.297   1_556  A
O55        Eu229   2.494       .  S
O56          C67   1.286       .  A
O56        Eu366   2.442       .  S
O57          C68   1.298       .  A
O57         Eu63   2.500       .  S
O58          C69   1.286       .  A
O58        Eu615   2.443       .  S
O59          C69   1.302       .  A
O59         Eu93   2.496       .  S
O60          C68   1.288       .  A
O60        Eu368   2.447       .  S
O61          C67   1.302       .  A
O61        Eu615   2.498       .  S
O62          C66   1.289       .  A
O62         Eu63   2.457       .  S
Eu63        O610   2.443   1_455  S
Eu63        O613   2.498   1_455  S
Eu63         O65   2.349       .  S
Eu63         O71   2.340       .  S
Eu63        O625   2.368   1_455  S
Eu63        O616   2.366   1_455  S
O64         Eu93   2.367       .  S
O64        Eu615   2.366       .  S
O64        Eu366   2.367       .  S
O65        Eu229   2.336   1_554  S
O65        Eu368   2.367       .  S
C66         C139   1.475       .  S
H70          O71   0.964       .  S
O71        Eu368   2.352       .  S
O71        Eu918   2.370   1_455  S
H72          O73   0.964       .  S
O73         Eu93   2.338       .  S
O73        Eu615   2.368       .  S
O73        Eu781   2.349   1_554  S
O74          C97   1.298       .  A
O74         Eu90   2.500       .  S
O75          C98   1.285       .  A
O75        Eu367   2.435   1_545  S
O76          C99   1.297       .  A
O76         Eu92   2.494       .  S
O77         C100   1.285       .  A
O77         Eu93   2.438       .  S
O78         C101   1.298       .  A
O78        Eu231   2.503       .  S
O79         C102   1.285   1_554  A
O79         Eu92   2.437       .  S
O80         C103   1.284       .  A
O80        Eu646   2.431   1_455  S
O81         C104   1.297       .  A
O81        Eu232   2.495       .  S
O82         C103   1.302       .  A
O82         Eu92   2.501       .  S
O83         C518   1.289   1_554  A
O83         Eu93   2.454       .  S
O84         C651   1.290       .  A
O84         Eu90   2.459       .  S
O85         C516   1.301       .  A
O85         Eu91   2.496       .  S
O86         C101   1.287       .  A
O86        Eu643   2.441       .  S
O87         C100   1.303       .  A
O87        Eu366   2.504       .  S
O88          C97   1.287       .  A
O88         Eu94   2.443       .  S
O89         C650   1.301       .  A
O89        Eu232   2.499       .  S
Eu90        O332   2.442   1_545  S
Eu90        O363   2.504   1_545  S
Eu90        O108   2.341       .  S
Eu90         O96   2.349       .  S
Eu90        O340   2.367   1_545  S
Eu90        O899   2.370   1_545  S
Eu91        O193   2.494       .  S
Eu91        O351   2.435       .  S
Eu91        O638   2.441       .  S
Eu91        O203   2.336       .  S
Eu91        O763   2.349   1_455  S
Eu91        O785   2.367   1_455  S
Eu91        O520   2.364       .  S
Eu92        O336   2.447   1_545  S
Eu92        O106   2.364       .  S
Eu92        O341   2.367   1_545  S
Eu92        O347   2.352   1_545  S
Eu92        O648   2.338       .  S
Eu93        O216   2.503   1_554  S
Eu93         O95   2.347   1_554  S
Eu93        O384   2.369       .  S
Eu94        O632   2.431       .  S
Eu94        O219   2.495   1_554  S
Eu94        O227   2.499   1_554  S
Eu94        O108   2.350       .  S
Eu94         O96   2.367       .  S
Eu94        O371   2.337   1_544  S
Eu94        O658   2.365       .  S
O95        Eu781   2.367       .  S
O95        Eu370   2.337   1_556  S
O96        Eu644   2.338       .  S
C98         O641   1.301       .  A
C99         O636   1.290   1_455  A
C102        C170   1.481       .  S
C102        O499   1.301   1_545  A
C103        C143   1.479       .  S
C104        O497   1.289   1_545  A
H105        O244   0.966       .  S
O106       Eu505   2.364   1_544  S
O106       Eu646   2.365   1_455  S
O106        H243   0.966   1_554  S
H107        O108   0.964       .  S
O108       Eu369   2.369   1_545  S
C109        C110   1.400       .  A
C109        C114   1.391       .  A
C109        F116   1.358       .  S
C110        C663   1.407   1_455  A
C111        C112   1.385       .  A
C111        C662   1.407       .  A
C111        F118   1.359       .  S
C112        C113   1.399       .  A
C112        F117   1.358       .  S
C113        C666   1.408       .  A
C114        C665   1.408   1_455  A
C114        F115   1.358       .  S
C119        C120   1.398       .  A
C119        C124   1.386       .  A
C119        F126   1.358       .  S
C120        C397   1.408       .  A
C121        C122   1.389       .  A
C121        C396   1.408   1_545  A
C121        F128   1.359       .  S
C122        C123   1.398       .  A
C122        F127   1.358       .  S
C123        C400   1.407   1_545  A
C124        C399   1.407       .  A
C124        F125   1.359       .  S
C129        C130   1.408       .  A
C129        C134   1.385       .  A
C129        F136   1.359       .  S
C130        C131   1.394       .  A
C131        C132   1.390       .  A
C131        F276   1.358   1_554  S
C132        C133   1.408       .  A
C132        F275   1.359       .  S
C133        C134   1.393       .  A
C134        F135   1.358       .  S
F137        C270   1.359       .  S
F138        C269   1.358       .  S
C139        C144   1.424       .  A
C140        C141   1.392       .  A
C140        H145   1.085       .  S
C141        C142   1.385       .  A
C141        C268   1.447       .  S
C142        H146   1.087       .  S
C143        C144   1.419       .  A
C144        H147   1.083       .  S
C148        C149   1.427       .  A
C148        C153   1.396       .  A
C148        C235   1.475       .  S
C149        C150   1.424       .  A
C149        H154   1.083       .  S
C150        C151   1.391       .  A
C150        C207   1.486       .  S
C151        C152   1.382       .  A
C151        H155   1.086       .  S
C152        C153   1.388       .  A
C152        C271   1.446       .  S
C153        H156   1.086       .  S
C157        C158   1.397       .  A
C157        C162   1.426       .  A
C157        C206   1.476       .  S
C158        C159   1.392       .  A
C158        H163   1.085       .  S
C159        C160   1.385       .  A
C159        C258   1.452       .  S
C160        C161   1.389       .  A
C160        H164   1.086       .  S
C161        C162   1.422       .  A
C161        C238   1.485       .  S
C162        H165   1.083       .  S
C166        C167   1.395       .  A
C166        C242   1.474       .  S
C167        C168   1.392       .  A
C167        H172   1.085       .  S
C168        C169   1.386       .  A
C168        C261   1.452       .  S
C169        C170   1.390       .  A
C169        H173   1.086       .  S
C171        H174   1.083       .  S
C175        C176   1.396       .  A
C175        C180   1.423       .  A
C175        C237   1.476       .  S
C176        C177   1.395       .  A
C176        H181   1.085       .  S
C177        C178   1.387       .  A
C177        C248   1.455       .  S
C178        C179   1.389       .  A
C178        H182   1.086       .  S
C179        C180   1.419       .  A
C179        C236   1.480       .  S
C180        H183   1.083       .  S
C184        C185   1.398       .  A
C184        C189   1.426       .  A
C184        C239   1.475       .  S
C185        C186   1.392       .  A
C185        H190   1.085       .  S
C186        C187   1.385       .  A
C186        C251   1.456       .  S
C187        C188   1.389       .  A
C187        H191   1.086       .  S
C188        C189   1.422       .  A
C188        C205   1.486       .  S
C189        H192   1.083       .  S
O193        C204   1.297       .  A
O194        C205   1.286       .  A
O194       Eu504   2.442       .  S
O195        C206   1.298       .  A
O195       Eu201   2.500       .  S
O196        C207   1.286       .  A
O196       Eu753   2.443       .  S
O197        C207   1.302       .  A
O197       Eu231   2.496       .  S
O198        C206   1.288       .  A
O198       Eu506   2.447       .  S
O199        C205   1.302       .  A
O199       Eu753   2.498       .  S
O200        C204   1.289       .  A
O200       Eu201   2.457       .  S
Eu201       O748   2.443   1_455  S
Eu201       O751   2.498   1_455  S
Eu201       O763   2.368   1_455  S
Eu201       O203   2.349       .  S
Eu201       O754   2.366   1_455  S
Eu201       O209   2.340       .  S
O202       Eu753   2.366       .  S
O202       Eu231   2.367       .  S
O202       Eu504   2.367       .  S
O203       Eu506   2.367       .  S
H208        O209   0.964       .  S
O209       Eu506   2.352       .  S
O209      Eu1056   2.370   1_455  S
H210        O211   0.964       .  S
O211       Eu753   2.368       .  S
O211       Eu643   2.349       .  S
O211       Eu231   2.338       .  S
O212        C235   1.298       .  A
O212       Eu228   2.500       .  S
O213        C236   1.285       .  A
O213       Eu505   2.435   1_545  S
O214        C237   1.297       .  A
O214       Eu230   2.494       .  S
O215        C238   1.285       .  A
O215       Eu231   2.438       .  S
O216        C239   1.298       .  A
O217        C240   1.285       .  A
O217       Eu230   2.437       .  S
O218        C241   1.284       .  A
O218       Eu784   2.431   1_455  S
O219        C242   1.297       .  A
O220        C241   1.302       .  A
O220       Eu230   2.501       .  S
O221        C380   1.289       .  A
O221       Eu231   2.454       .  S
O222        C789   1.290       .  A
O222       Eu228   2.459       .  S
O223        C378   1.301       .  A
O223       Eu229   2.496       .  S
O224        C239   1.287       .  A
O224       Eu781   2.441       .  S
O225        C238   1.303       .  A
O225       Eu504   2.504       .  S
O226        C235   1.287       .  A
O226       Eu232   2.443       .  S
O227        C788   1.301       .  A
Eu228       O470   2.442   1_545  S
Eu228       O501   2.504   1_545  S
Eu228       O478   2.367   1_545  S
Eu228      O1037   2.370   1_545  S
Eu228       O246   2.341       .  S
Eu228       O234   2.349       .  S
Eu229       O489   2.435       .  S
Eu229       O776   2.441       .  S
Eu229       O625   2.349   1_456  S
Eu229       O647   2.367   1_455  S
Eu229       O382   2.364   1_556  S
Eu230       O474   2.447   1_545  S
Eu230       O479   2.367   1_545  S
Eu230       O485   2.352   1_545  S
Eu230       O244   2.364       .  S
Eu230       O786   2.338       .  S
Eu231       O233   2.347       .  S
Eu231       O522   2.369       .  S
Eu232       O770   2.431       .  S
Eu232       O509   2.337   1_545  S
Eu232       O796   2.365       .  S
Eu232       O246   2.350       .  S
Eu232       O234   2.367       .  S
O233       Eu643   2.367       .  S
O233       Eu508   2.337       .  S
O234       Eu782   2.338       .  S
C236        O779   1.301       .  A
C237        O774   1.290   1_455  A
C240        O361   1.301   1_545  A
C242        O359   1.289   1_546  A
O244       Eu367   2.364   1_545  S
O244       Eu784   2.365   1_455  S
H245        O246   0.964       .  S
O246       Eu507   2.369   1_545  S
C247        C248   1.400       .  A
C247        C252   1.391       .  A
C247        F254   1.358       .  S
C248        C801   1.407   1_455  A
C249        C800   1.407       .  A
C249        C250   1.385       .  A
C249        F256   1.359       .  S
C250        C251   1.399       .  A
C250        F255   1.358       .  S
C251        C804   1.408       .  A
C252        C803   1.408   1_455  A
C252        F253   1.358       .  S
C257        C258   1.398       .  A
C257        C262   1.386       .  A
C257        F264   1.358       .  S
C258        C535   1.408       .  A
C259        C534   1.408   1_545  A
C259        C260   1.389       .  A
C259        F266   1.359       .  S
C260        C261   1.398       .  A
C260        F265   1.358       .  S
C261        C538   1.407   1_545  A
C262        C537   1.407       .  A
C262        F263   1.359       .  S
C267        C268   1.408       .  A
C267        C272   1.385       .  A
C267        F274   1.359       .  S
C268        C269   1.394       .  A
C269        C270   1.390       .  A
C270        C271   1.408       .  A
C271        C272   1.393       .  A
C272        F273   1.358       .  S
C277        C416   1.395       .  A
C277        C282   1.424       .  A
C277        C480   1.475       .  S
C278        C415   1.395       .  A
C278        C279   1.392       .  A
C278        H283   1.085       .  S
C279        C280   1.385       .  A
C279        C406   1.447       .  S
C280        C419   1.389       .  A
C280        H284   1.087       .  S
C281        C418   1.389       .  A
C281        C282   1.419       .  A
C281        C517   1.479       .  S
C282        H285   1.083       .  S
C286        C287   1.427       .  A
C286        C291   1.396       .  A
C286        C373   1.475       .  S
C287        C288   1.424       .  A
C287        H292   1.083       .  S
C288        C289   1.391       .  A
C288        C345   1.486       .  S
C289        C290   1.382       .  A
C289        H293   1.086       .  S
C290        C291   1.388       .  A
C290        C409   1.446       .  S
C291        H294   1.086       .  S
C295        C296   1.397       .  A
C295        C300   1.426       .  A
C295        C344   1.476       .  S
C296        C297   1.392       .  A
C296        H301   1.085       .  S
C297        C298   1.385       .  A
C297        C396   1.452       .  S
C298        C299   1.389       .  A
C298        H302   1.086       .  S
C299        C300   1.422       .  A
C299        C376   1.485       .  S
C300        H303   1.083       .  S
C304        C305   1.395       .  A
C304        C447   1.424       .  A
C304        C380   1.474       .  S
C305        C306   1.392       .  A
C305        H310   1.085       .  S
C306        C307   1.386       .  A
C306        C399   1.452       .  S
C307        C308   1.390       .  A
C307        H311   1.086       .  S
C308        C447   1.419       .  A
C308        C516   1.481       .  S
C309        C442   1.424       .  A
C309        C446   1.419       .  A
C309        H312   1.083   1_556  S
C313        C314   1.396       .  A
C313        C318   1.423       .  A
C313        C375   1.476       .  S
C314        C315   1.395       .  A
C314        H319   1.085       .  S
C315        C316   1.387       .  A
C315        C386   1.455       .  S
C316        C317   1.389       .  A
C316        H320   1.086       .  S
C317        C318   1.419       .  A
C317        C374   1.480       .  S
C318        H321   1.083       .  S
C322        C323   1.398       .  A
C322        C327   1.426       .  A
C322        C377   1.475       .  S
C323        C324   1.392       .  A
C323        H328   1.085       .  S
C324        C325   1.385       .  A
C324        C389   1.456       .  S
C325        C326   1.389       .  A
C325        H329   1.086       .  S
C326        C327   1.422       .  A
C326        C343   1.486       .  S
C327        H330   1.083       .  S
O331        C342   1.297   1_556  A
O331       Eu505   2.494       .  S
O332        C343   1.286       .  A
O333        C344   1.298       .  A
O333       Eu339   2.500       .  S
O334        C345   1.286       .  A
O334       Eu891   2.443       .  S
O335        C345   1.302       .  A
O335       Eu369   2.496       .  S
O336        C344   1.288       .  A
O337        C343   1.302       .  A
O337       Eu891   2.498       .  S
O338        C342   1.289       .  A
O338       Eu339   2.457       .  S
Eu339       O886   2.443   1_455  S
Eu339       O889   2.498   1_455  S
Eu339       O901   2.368   1_455  S
Eu339       O341   2.349       .  S
Eu339       O892   2.366   1_455  S
Eu339       O347   2.340       .  S
O340       Eu891   2.366       .  S
O340       Eu369   2.367       .  S
O341       Eu505   2.336   1_554  S
C342        C415   1.475       .  S
H346        O347   0.964       .  S
O347       Eu642   2.370   1_465  S
H348        O349   0.964       .  S
O349       Eu891   2.368       .  S
O349      Eu1057   2.349   1_554  S
O349       Eu369   2.338       .  S
O350        C373   1.298       .  A
O350       Eu366   2.500       .  S
O351        C374   1.285       .  A
O352        C375   1.297       .  A
O352       Eu368   2.494       .  S
O353        C376   1.285       .  A
O353       Eu369   2.438       .  S
O354        C377   1.298       .  A
O354       Eu507   2.503       .  S
O355        C378   1.285   1_554  A
O355       Eu368   2.437       .  S
O356        C379   1.284       .  A
O356       Eu922   2.431   1_455  S
O357        C380   1.297       .  A
O357       Eu508   2.495       .  S
O358        C379   1.302       .  A
O358       Eu368   2.501       .  S
O359       Eu369   2.454       .  S
O360        C927   1.290       .  A
O360       Eu366   2.459       .  S
O361       Eu367   2.496       .  S
O362        C377   1.287       .  A
O362       Eu919   2.441       .  S
O363        C376   1.303       .  A
O364        C373   1.287       .  A
O364       Eu370   2.443       .  S
O365        C926   1.301       .  A
O365       Eu508   2.499       .  S
Eu366       O623   2.370       .  S
Eu366       O384   2.341       .  S
Eu366       O372   2.349       .  S
Eu367       O469   2.494       .  S
Eu367       O914   2.441       .  S
Eu367       O479   2.336       .  S
Eu367      O1039   2.349   1_455  S
Eu367      O1061   2.367   1_455  S
Eu368       O382   2.364       .  S
Eu368       O924   2.338       .  S
Eu369       O492   2.503   1_554  S
Eu369       O371   2.347   1_554  S
Eu370       O908   2.431       .  S
Eu370       O495   2.495   1_554  S
Eu370       O503   2.499   1_554  S
Eu370       O934   2.365       .  S
Eu370       O384   2.350       .  S
Eu370       O372   2.367       .  S
O371      Eu1057   2.367       .  S
O372       Eu920   2.338       .  S
C374        O917   1.301       .  A
C375        O912   1.290   1_455  A
C378        C446   1.481       .  S
C379        C419   1.479       .  S
H381        O520   0.966       .  S
O382       Eu922   2.365   1_455  S
O382        H519   0.966   1_554  S
H383        O384   0.964       .  S
C385        C386   1.400       .  A
C385        C390   1.391       .  A
C385        F392   1.358       .  S
C386        C939   1.407   1_455  A
C387        C938   1.407       .  A
C387        C388   1.385       .  A
C387        F394   1.359       .  S
C388        C389   1.399       .  A
C388        F393   1.358       .  S
C389        C942   1.408       .  A
C390        C941   1.408   1_455  A
C390        F391   1.358       .  S
C395        C396   1.398       .  A
C395        C400   1.386       .  A
C395        F402   1.358       .  S
C397        C398   1.389       .  A
C397        F404   1.359       .  S
C398        C399   1.398       .  A
C398        F403   1.358       .  S
C400        F401   1.359       .  S
C405        C406   1.408       .  A
C405        C410   1.385       .  A
C405        F412   1.359       .  S
C406        C407   1.394       .  A
C407        C408   1.390       .  A
C407        F552   1.358   1_554  S
C408        C409   1.408       .  A
C408        F551   1.359       .  S
C409        C410   1.393       .  A
C410        F411   1.358       .  S
F413        C546   1.359       .  S
F414        C545   1.358       .  S
C415        C420   1.424       .  A
C416        C417   1.392       .  A
C416        H421   1.085       .  S
C417        C418   1.385       .  A
C417        C544   1.447       .  S
C418        H422   1.087       .  S
C419        C420   1.419       .  A
C420        H423   1.083       .  S
C424        C425   1.427       .  A
C424        C429   1.396       .  A
C424        C511   1.475       .  S
C425        C426   1.424       .  A
C425        H430   1.083       .  S
C426        C427   1.391       .  A
C426        C483   1.486       .  S
C427        C428   1.382       .  A
C427        H431   1.086       .  S
C428        C429   1.388       .  A
C428        C547   1.446       .  S
C429        H432   1.086       .  S
C433        C434   1.397       .  A
C433        C438   1.426       .  A
C433        C482   1.476       .  S
C434        C435   1.392       .  A
C434        H439   1.085       .  S
C435        C436   1.385       .  A
C435        C534   1.452       .  S
C436        C437   1.389       .  A
C436        H440   1.086       .  S
C437        C438   1.422       .  A
C437        C514   1.485       .  S
C438        H441   1.083       .  S
C442        C443   1.395       .  A
C442        C518   1.474       .  S
C443        C444   1.392       .  A
C443        H448   1.085       .  S
C444        C445   1.386       .  A
C444        C537   1.452       .  S
C445        C446   1.390       .  A
C445        H449   1.086       .  S
C447        H450   1.083       .  S
C451        C452   1.396       .  A
C451        C456   1.423       .  A
C451        C513   1.476       .  S
C452        C453   1.395       .  A
C452        H457   1.085       .  S
C453        C454   1.387       .  A
C453        C524   1.455       .  S
C454        C455   1.389       .  A
C454        H458   1.086       .  S
C455        C456   1.419       .  A
C455        C512   1.480       .  S
C456        H459   1.083       .  S
C460        C461   1.398       .  A
C460        C465   1.426       .  A
C460        C515   1.475       .  S
C461        C462   1.392       .  A
C461        H466   1.085       .  S
C462        C463   1.385       .  A
C462        C527   1.456       .  S
C463        C464   1.389       .  A
C463        H467   1.086       .  S
C464        C465   1.422       .  A
C464        C481   1.486       .  S
C465        H468   1.083       .  S
O469        C480   1.297       .  A
O470        C481   1.286       .  A
O471        C482   1.298       .  A
O471       Eu477   2.500       .  S
O472        C483   1.286       .  A
O472      Eu1029   2.443       .  S
O473        C483   1.302       .  A
O473       Eu507   2.496       .  S
O474        C482   1.288       .  A
O475        C481   1.302       .  A
O475      Eu1029   2.498       .  S
O476        C480   1.289       .  A
O476       Eu477   2.457       .  S
Eu477      O1024   2.443   1_455  S
Eu477      O1027   2.498   1_455  S
Eu477      O1039   2.368   1_455  S
Eu477       O479   2.349       .  S
Eu477      O1030   2.366   1_455  S
Eu477       O485   2.340       .  S
O478      Eu1029   2.366       .  S
O478       Eu507   2.367       .  S
H484        O485   0.964       .  S
O485       Eu780   2.370   1_465  S
H486        O487   0.964       .  S
O487      Eu1029   2.368       .  S
O487       Eu919   2.349       .  S
O487       Eu507   2.338       .  S
O488        C511   1.298       .  A
O488       Eu504   2.500       .  S
O489        C512   1.285       .  A
O490        C513   1.297       .  A
O490       Eu506   2.494       .  S
O491        C514   1.285       .  A
O491       Eu507   2.438       .  S
O492        C515   1.298       .  A
O493        C516   1.285       .  A
O493       Eu506   2.437       .  S
O494        C517   1.284       .  A
O494      Eu1060   2.431   1_455  S
O495        C518   1.297       .  A
O496        C517   1.302       .  A
O496       Eu506   2.501       .  S
O497       Eu507   2.454       .  S
O498       C1065   1.290       .  A
O498       Eu504   2.459       .  S
O499       Eu505   2.496       .  S
O500        C515   1.287       .  A
O500      Eu1057   2.441       .  S
O501        C514   1.303       .  A
O502        C511   1.287       .  A
O502       Eu508   2.443       .  S
O503       C1064   1.301       .  A
Eu504       O761   2.370       .  S
Eu504       O522   2.341       .  S
Eu504       O510   2.349       .  S
Eu505      O1052   2.441       .  S
Eu505       O901   2.349   1_456  S
Eu505       O923   2.367   1_455  S
Eu506       O520   2.364       .  S
Eu506      O1062   2.338       .  S
Eu507       O509   2.347       .  S
Eu508      O1046   2.431       .  S
Eu508      O1072   2.365       .  S
Eu508       O522   2.350       .  S
Eu508       O510   2.367       .  S
O509       Eu919   2.367       .  S
O510      Eu1058   2.338       .  S
C512       O1055   1.301       .  A
C513       O1050   1.290   1_455  A
O520      Eu1060   2.365   1_455  S
H521        O522   0.964       .  S
C523        C524   1.400       .  A
C523        C528   1.391       .  A
C523        F530   1.358       .  S
C524       C1077   1.407   1_455  A
C525       C1076   1.407       .  A
C525        C526   1.385       .  A
C525        F532   1.359       .  S
C526        C527   1.399       .  A
C526        F531   1.358       .  S
C527       C1080   1.408       .  A
C528       C1079   1.408   1_455  A
C528        F529   1.358       .  S
C533        C534   1.398       .  A
C533        C538   1.386       .  A
C533        F540   1.358       .  S
C535        C536   1.389       .  A
C535        F542   1.359       .  S
C536        C537   1.398       .  A
C536        F541   1.358       .  S
C538        F539   1.359       .  S
C543        C544   1.408       .  A
C543        C548   1.385       .  A
C543        F550   1.359       .  S
C544        C545   1.394       .  A
C545        C546   1.390       .  A
C546        C547   1.408       .  A
C547        C548   1.393       .  A
C548        F549   1.358       .  S
C553        C692   1.395       .  A
C553        C558   1.424       .  A
C553        C756   1.475       .  S
C554        C691   1.395       .  A
C554        C555   1.392       .  A
C554        H559   1.085       .  S
C555        C556   1.385       .  A
C555        C682   1.447       .  S
C556        C695   1.389       .  A
C556        H560   1.087       .  S
C557        C694   1.389       .  A
C557        C558   1.419       .  A
C557        C793   1.479       .  S
C558        H561   1.083       .  S
C562        C563   1.427       .  A
C562        C567   1.396       .  A
C562        C649   1.475       .  S
C563        C564   1.424       .  A
C563        H568   1.083       .  S
C564        C565   1.391       .  A
C564        C621   1.486       .  S
C565        C566   1.382       .  A
C565        H569   1.086       .  S
C566        C567   1.388       .  A
C566        C685   1.446       .  S
C567        H570   1.086       .  S
C571        C572   1.397       .  A
C571        C576   1.426       .  A
C571        C620   1.476       .  S
C572        C573   1.392       .  A
C572        H577   1.085       .  S
C573        C574   1.385       .  A
C573        C672   1.452       .  S
C574        C575   1.389       .  A
C574        H578   1.086       .  S
C575        C576   1.422       .  A
C575        C652   1.485       .  S
C576        H579   1.083       .  S
C580        C581   1.395       .  A
C580        C723   1.424       .  A
C580        C656   1.474       .  S
C581        C582   1.392       .  A
C581        H586   1.085       .  S
C582        C583   1.386       .  A
C582        C675   1.452       .  S
C583        C584   1.390       .  A
C583        H587   1.086       .  S
C584        C723   1.419       .  A
C584        C792   1.481       .  S
C585        C718   1.424       .  A
C585        C722   1.419       .  A
C585        H588   1.083   1_556  S
C589        C590   1.396       .  A
C589        C594   1.423       .  A
C589        C651   1.476       .  S
C590        C591   1.395       .  A
C590        H595   1.085       .  S
C591        C592   1.387       .  A
C591        C662   1.455       .  S
C592        C593   1.389       .  A
C592        H596   1.086       .  S
C593        C594   1.419       .  A
C593        C650   1.480       .  S
C594        H597   1.083       .  S
C598        C599   1.398       .  A
C598        C603   1.426       .  A
C598        C653   1.475       .  S
C599        C600   1.392       .  A
C599        H604   1.085       .  S
C600        C601   1.385       .  A
C600        C665   1.456       .  S
C601        C602   1.389       .  A
C601        H605   1.086       .  S
C602        C603   1.422       .  A
C602        C619   1.486       .  S
C603        H606   1.083       .  S
O607        C618   1.297   1_556  A
O607       Eu781   2.494       .  S
O608        C619   1.286       .  A
O608       Eu918   2.442       .  S
O609        C620   1.298       .  A
O609       Eu615   2.500       .  S
O610        C621   1.286       .  A
O611        C621   1.302       .  A
O611       Eu645   2.496       .  S
O612        C620   1.288       .  A
O612       Eu920   2.447       .  S
O613        C619   1.302       .  A
O614        C618   1.289       .  A
O614       Eu615   2.457       .  S
Eu615       O617   2.349       .  S
Eu615       O623   2.340       .  S
O616       Eu645   2.367       .  S
O616       Eu918   2.367       .  S
O617       Eu781   2.336   1_554  S
O617       Eu920   2.367       .  S
C618        C691   1.475       .  S
H622        O623   0.964       .  S
O623       Eu920   2.352       .  S
H624        O625   0.964       .  S
O625       Eu645   2.338       .  S
O626        C649   1.298       .  A
O626       Eu642   2.500       .  S
O627        C650   1.285       .  A
O627       Eu919   2.435   1_545  S
O628        C651   1.297       .  A
O628       Eu644   2.494       .  S
O629        C652   1.285       .  A
O629       Eu645   2.438       .  S
O630        C653   1.298       .  A
O630       Eu783   2.503       .  S
O631        C654   1.285   1_554  A
O631       Eu644   2.437       .  S
O632        C655   1.284       .  A
O633        C656   1.297       .  A
O633       Eu784   2.495       .  S
O634        C655   1.302       .  A
O634       Eu644   2.501       .  S
O635       C1070   1.289   1_554  A
O635       Eu645   2.454       .  S
O636       Eu642   2.459       .  S
O637       C1068   1.301       .  A
O637       Eu643   2.496       .  S
O638        C653   1.287   1_455  A
O639        C652   1.303       .  A
O639       Eu918   2.504       .  S
O640        C649   1.287       .  A
O640       Eu646   2.443       .  S
O641       Eu784   2.499   1_455  S
Eu642       O884   2.442   1_545  S
Eu642       O915   2.504   1_545  S
Eu642       O892   2.367   1_545  S
Eu642       O660   2.341       .  S
Eu642       O648   2.349   1_655  S
Eu643       O745   2.494       .  S
Eu643       O903   2.435       .  S
Eu643       O755   2.336       .  S
Eu643      O1072   2.364       .  S
Eu644       O888   2.447   1_545  S
Eu644       O893   2.367   1_545  S
Eu644       O899   2.352   1_545  S
Eu644       O658   2.364       .  S
Eu645       O768   2.503   1_554  S
Eu645       O647   2.347   1_554  S
Eu645       O936   2.369       .  S
Eu646       O771   2.495   1_554  S
Eu646       O779   2.499   1_654  S
Eu646       O923   2.337   1_544  S
Eu646       O660   2.350       .  S
Eu646       O648   2.367   1_655  S
O647       Eu922   2.337   1_556  S
C654        C722   1.481       .  S
C654       O1051   1.301   1_545  A
C655        C695   1.479       .  S
C656       O1049   1.289   1_545  A
H657        O796   0.966       .  S
O658      Eu1057   2.364   1_544  S
O658        H795   0.966   1_554  S
H659        O660   0.964       .  S
O660       Eu921   2.369   1_545  S
C661        C662   1.400       .  A
C661        C666   1.391       .  A
C661        F668   1.358       .  S
C663        C664   1.385       .  A
C663        F670   1.359       .  S
C664        C665   1.399       .  A
C664        F669   1.358       .  S
C666        F667   1.358       .  S
C671        C672   1.398       .  A
C671        C676   1.386       .  A
C671        F678   1.358       .  S
C672        C949   1.408       .  A
C673        C948   1.408   1_545  A
C673        C674   1.389       .  A
C673        F680   1.359       .  S
C674        C675   1.398       .  A
C674        F679   1.358       .  S
C675        C952   1.407   1_545  A
C676        C951   1.407       .  A
C676        F677   1.359       .  S
C681        C682   1.408       .  A
C681        C686   1.385       .  A
C681        F688   1.359       .  S
C682        C683   1.394       .  A
C683        C684   1.390       .  A
C683        F828   1.358   1_554  S
C684        C685   1.408       .  A
C684        F827   1.359       .  S
C685        C686   1.393       .  A
C686        F687   1.358       .  S
F689        C822   1.359       .  S
F690        C821   1.358       .  S
C691        C696   1.424       .  A
C692        C693   1.392       .  A
C692        H697   1.085       .  S
C693        C694   1.385       .  A
C693        C820   1.447       .  S
C694        H698   1.087       .  S
C695        C696   1.419       .  A
C696        H699   1.083       .  S
C700        C701   1.427       .  A
C700        C705   1.396       .  A
C700        C787   1.475       .  S
C701        C702   1.424       .  A
C701        H706   1.083       .  S
C702        C703   1.391       .  A
C702        C759   1.486       .  S
C703        C704   1.382       .  A
C703        H707   1.086       .  S
C704        C705   1.388       .  A
C704        C823   1.446       .  S
C705        H708   1.086       .  S
C709        C710   1.397       .  A
C709        C714   1.426       .  A
C709        C758   1.476       .  S
C710        C711   1.392       .  A
C710        H715   1.085       .  S
C711        C712   1.385       .  A
C711        C810   1.452       .  S
C712        C713   1.389       .  A
C712        H716   1.086       .  S
C713        C714   1.422       .  A
C713        C790   1.485       .  S
C714        H717   1.083       .  S
C718        C719   1.395       .  A
C718        C794   1.474       .  S
C719        C720   1.392       .  A
C719        H724   1.085       .  S
C720        C721   1.386       .  A
C720        C813   1.452       .  S
C721        C722   1.390       .  A
C721        H725   1.086       .  S
C723        H726   1.083       .  S
C727        C728   1.396       .  A
C727        C732   1.423       .  A
C727        C789   1.476       .  S
C728        C729   1.395       .  A
C728        H733   1.085       .  S
C729        C730   1.387       .  A
C729        C800   1.455       .  S
C730        C731   1.389       .  A
C730        H734   1.086       .  S
C731        C732   1.419       .  A
C731        C788   1.480       .  S
C732        H735   1.083       .  S
C736        C737   1.398       .  A
C736        C741   1.426       .  A
C736        C791   1.475       .  S
C737        C738   1.392       .  A
C737        H742   1.085       .  S
C738        C739   1.385       .  A
C738        C803   1.456       .  S
C739        C740   1.389       .  A
C739        H743   1.086       .  S
C740        C741   1.422       .  A
C740        C757   1.486       .  S
C741        H744   1.083       .  S
O745        C756   1.297       .  A
O746        C757   1.286       .  A
O746      Eu1056   2.442       .  S
O747        C758   1.298       .  A
O747       Eu753   2.500       .  S
O748        C759   1.286       .  A
O749        C759   1.302       .  A
O749       Eu783   2.496       .  S
O750        C758   1.288       .  A
O750      Eu1058   2.447       .  S
O751        C757   1.302       .  A
O752        C756   1.289       .  A
O752       Eu753   2.457       .  S
Eu753       O755   2.349       .  S
Eu753       O761   2.340       .  S
O754       Eu783   2.367       .  S
O754      Eu1056   2.367       .  S
O755      Eu1058   2.367       .  S
H760        O761   0.964       .  S
O761      Eu1058   2.352       .  S
H762        O763   0.964       .  S
O763       Eu783   2.338       .  S
O764        C787   1.298       .  A
O764       Eu780   2.500       .  S
O765        C788   1.285       .  A
O765      Eu1057   2.435   1_545  S
O766        C789   1.297       .  A
O766       Eu782   2.494       .  S
O767        C790   1.285       .  A
O767       Eu783   2.438       .  S
O768        C791   1.298       .  A
O769        C792   1.285       .  A
O769       Eu782   2.437       .  S
O770        C793   1.284       .  A
O771        C794   1.297       .  A
O772        C793   1.302       .  A
O772       Eu782   2.501       .  S
O773        C932   1.289       .  A
O773       Eu783   2.454       .  S
O774       Eu780   2.459       .  S
O775        C930   1.301       .  A
O775       Eu781   2.496       .  S
O776        C791   1.287   1_455  A
O777        C790   1.303       .  A
O777      Eu1056   2.504       .  S
O778        C787   1.287       .  A
O778       Eu784   2.443       .  S
Eu780      O1022   2.442   1_545  S
Eu780      O1053   2.504   1_545  S
Eu780      O1030   2.367   1_545  S
Eu780       O798   2.341       .  S
Eu780       O786   2.349   1_655  S
Eu781      O1041   2.435       .  S
Eu781       O934   2.364   1_556  S
Eu782      O1026   2.447   1_545  S
Eu782      O1031   2.367   1_545  S
Eu782      O1037   2.352   1_545  S
Eu782       O796   2.364       .  S
Eu783       O785   2.347       .  S
Eu783      O1074   2.369       .  S
Eu784      O1061   2.337   1_545  S
Eu784       O798   2.350       .  S
Eu784       O786   2.367   1_655  S
O785      Eu1060   2.337       .  S
C792        O913   1.301   1_545  A
C794        O911   1.289   1_546  A
O796       Eu919   2.364   1_545  S
H797        O798   0.964       .  S
O798      Eu1059   2.369   1_545  S
C799        C800   1.400       .  A
C799        C804   1.391       .  A
C799        F806   1.358       .  S
C801        C802   1.385       .  A
C801        F808   1.359       .  S
C802        C803   1.399       .  A
C802        F807   1.358       .  S
C804        F805   1.358       .  S
C809        C810   1.398       .  A
C809        C814   1.386       .  A
C809        F816   1.358       .  S
C810       C1087   1.408       .  A
C811       C1086   1.408   1_545  A
C811        C812   1.389       .  A
C811        F818   1.359       .  S
C812        C813   1.398       .  A
C812        F817   1.358       .  S
C813       C1090   1.407   1_545  A
C814       C1089   1.407       .  A
C814        F815   1.359       .  S
C819        C820   1.408       .  A
C819        C824   1.385       .  A
C819        F826   1.359       .  S
C820        C821   1.394       .  A
C821        C822   1.390       .  A
C822        C823   1.408       .  A
C823        C824   1.393       .  A
C824        F825   1.358       .  S
C829        C968   1.395       .  A
C829        C834   1.424       .  A
C829       C1032   1.475       .  S
C830        C967   1.395       .  A
C830        C831   1.392       .  A
C830        H835   1.085       .  S
C831        C832   1.385       .  A
C831        C958   1.447       .  S
C832        C971   1.389       .  A
C832        H836   1.087       .  S
C833        C970   1.389       .  A
C833        C834   1.419       .  A
C833       C1069   1.479       .  S
C834        H837   1.083       .  S
C838        C839   1.427       .  A
C838        C843   1.396       .  A
C838        C925   1.475       .  S
C839        C840   1.424       .  A
C839        H844   1.083       .  S
C840        C841   1.391       .  A
C840        C897   1.486       .  S
C841        C842   1.382       .  A
C841        H845   1.086       .  S
C842        C843   1.388       .  A
C842        C961   1.446       .  S
C843        H846   1.086       .  S
C847        C848   1.397       .  A
C847        C852   1.426       .  A
C847        C896   1.476       .  S
C848        C849   1.392       .  A
C848        H853   1.085       .  S
C849        C850   1.385       .  A
C849        C948   1.452       .  S
C850        C851   1.389       .  A
C850        H854   1.086       .  S
C851        C852   1.422       .  A
C851        C928   1.485       .  S
C852        H855   1.083       .  S
C856        C857   1.395       .  A
C856        C999   1.424       .  A
C856        C932   1.474       .  S
C857        C858   1.392       .  A
C857        H862   1.085       .  S
C858        C859   1.386       .  A
C858        C951   1.452       .  S
C859        C860   1.390       .  A
C859        H863   1.086       .  S
C860        C999   1.419       .  A
C860       C1068   1.481       .  S
C861        C994   1.424       .  A
C861        C998   1.419       .  A
C861        H864   1.083   1_556  S
C865        C866   1.396       .  A
C865        C870   1.423       .  A
C865        C927   1.476       .  S
C866        C867   1.395       .  A
C866        H871   1.085       .  S
C867        C868   1.387       .  A
C867        C938   1.455       .  S
C868        C869   1.389       .  A
C868        H872   1.086       .  S
C869        C870   1.419       .  A
C869        C926   1.480       .  S
C870        H873   1.083       .  S
C874        C875   1.398       .  A
C874        C879   1.426       .  A
C874        C929   1.475       .  S
C875        C876   1.392       .  A
C875        H880   1.085       .  S
C876        C877   1.385       .  A
C876        C941   1.456       .  S
C877        C878   1.389       .  A
C877        H881   1.086       .  S
C878        C879   1.422       .  A
C878        C895   1.486       .  S
C879        H882   1.083       .  S
O883        C894   1.297   1_556  A
O883      Eu1057   2.494       .  S
O884        C895   1.286       .  A
O885        C896   1.298       .  A
O885       Eu891   2.500       .  S
O886        C897   1.286       .  A
O887        C897   1.302       .  A
O887       Eu921   2.496       .  S
O888        C896   1.288       .  A
O889        C895   1.302       .  A
O890        C894   1.289       .  A
O890       Eu891   2.457       .  S
Eu891       O893   2.349       .  S
Eu891       O899   2.340       .  S
O892       Eu921   2.367       .  S
O893      Eu1057   2.336   1_554  S
C894        C967   1.475       .  S
H898        O899   0.964       .  S
H900        O901   0.964       .  S
O901       Eu921   2.338       .  S
O902        C925   1.298       .  A
O902       Eu918   2.500       .  S
O903        C926   1.285       .  A
O904        C927   1.297       .  A
O904       Eu920   2.494       .  S
O905        C928   1.285       .  A
O905       Eu921   2.438       .  S
O906        C929   1.298       .  A
O906      Eu1059   2.503       .  S
O907        C930   1.285   1_554  A
O907       Eu920   2.437       .  S
O908        C931   1.284       .  A
O909        C932   1.297       .  A
O909      Eu1060   2.495       .  S
O910        C931   1.302       .  A
O910       Eu920   2.501       .  S
O911       Eu921   2.454       .  S
O912       Eu918   2.459       .  S
O913       Eu919   2.496       .  S
O914        C929   1.287   1_455  A
O915        C928   1.303       .  A
O916        C925   1.287       .  A
O916       Eu922   2.443       .  S
O917      Eu1060   2.499   1_455  S
Eu918       O936   2.341       .  S
Eu918       O924   2.349   1_655  S
Eu919      O1021   2.494       .  S
Eu919      O1031   2.336       .  S
Eu920       O934   2.364       .  S
Eu921      O1044   2.503   1_554  S
Eu921       O923   2.347   1_554  S
Eu922      O1047   2.495   1_554  S
Eu922      O1055   2.499   1_654  S
Eu922       O936   2.350       .  S
Eu922       O924   2.367   1_655  S
C930        C998   1.481       .  S
C931        C971   1.479       .  S
H933       O1072   0.966       .  S
O934       H1071   0.966   1_554  S
H935        O936   0.964       .  S
C937        C938   1.400       .  A
C937        C942   1.391       .  A
C937        F944   1.358       .  S
C939        C940   1.385       .  A
C939        F946   1.359       .  S
C940        C941   1.399       .  A
C940        F945   1.358       .  S
C942        F943   1.358       .  S
C947        C948   1.398       .  A
C947        C952   1.386       .  A
C947        F954   1.358       .  S
C949        C950   1.389       .  A
C949        F956   1.359       .  S
C950        C951   1.398       .  A
C950        F955   1.358       .  S
C952        F953   1.359       .  S
C957        C958   1.408       .  A
C957        C962   1.385       .  A
C957        F964   1.359       .  S
C958        C959   1.394       .  A
C959        C960   1.390       .  A
C959       F1104   1.358   1_554  S
C960        C961   1.408       .  A
C960       F1103   1.359       .  S
C961        C962   1.393       .  A
C962        F963   1.358       .  S
F965       C1098   1.359       .  S
F966       C1097   1.358       .  S
C967        C972   1.424       .  A
C968        C969   1.392       .  A
C968        H973   1.085       .  S
C969        C970   1.385       .  A
C969       C1096   1.447       .  S
C970        H974   1.087       .  S
C971        C972   1.419       .  A
C972        H975   1.083       .  S
C976        C977   1.427       .  A
C976        C981   1.396       .  A
C976       C1063   1.475       .  S
C977        C978   1.424       .  A
C977        H982   1.083       .  S
C978        C979   1.391       .  A
C978       C1035   1.486       .  S
C979        C980   1.382       .  A
C979        H983   1.086       .  S
C980        C981   1.388       .  A
C980       C1099   1.446       .  S
C981        H984   1.086       .  S
C985        C986   1.397       .  A
C985        C990   1.426       .  A
C985       C1034   1.476       .  S
C986        C987   1.392       .  A
C986        H991   1.085       .  S
C987        C988   1.385       .  A
C987       C1086   1.452       .  S
C988        C989   1.389       .  A
C988        H992   1.086       .  S
C989        C990   1.422       .  A
C989       C1066   1.485       .  S
C990        H993   1.083       .  S
C994        C995   1.395       .  A
C994       C1070   1.474       .  S
C995        C996   1.392       .  A
C995       H1000   1.085       .  S
C996        C997   1.386       .  A
C996       C1089   1.452       .  S
C997        C998   1.390       .  A
C997       H1001   1.086       .  S
C999       H1002   1.083       .  S
C1003      C1004   1.396       .  A
C1003      C1008   1.423       .  A
C1003      C1065   1.476       .  S
C1004      C1005   1.395       .  A
C1004      H1009   1.085       .  S
C1005      C1006   1.387       .  A
C1005      C1076   1.455       .  S
C1006      C1007   1.389       .  A
C1006      H1010   1.086       .  S
C1007      C1008   1.419       .  A
C1007      C1064   1.480       .  S
C1008      H1011   1.083       .  S
C1012      C1013   1.398       .  A
C1012      C1017   1.426       .  A
C1012      C1067   1.475       .  S
C1013      C1014   1.392       .  A
C1013      H1018   1.085       .  S
C1014      C1015   1.385       .  A
C1014      C1079   1.456       .  S
C1015      C1016   1.389       .  A
C1015      H1019   1.086       .  S
C1016      C1017   1.422       .  A
C1016      C1033   1.486       .  S
C1017      H1020   1.083       .  S
O1021      C1032   1.297       .  A
O1022      C1033   1.286       .  A
O1023      C1034   1.298       .  A
O1023     Eu1029   2.500       .  S
O1024      C1035   1.286       .  A
O1025      C1035   1.302       .  A
O1025     Eu1059   2.496       .  S
O1026      C1034   1.288       .  A
O1027      C1033   1.302       .  A
O1028      C1032   1.289       .  A
O1028     Eu1029   2.457       .  S
Eu1029     O1031   2.349       .  S
Eu1029     O1037   2.340       .  S
O1030     Eu1059   2.367       .  S
H1036      O1037   0.964       .  S
H1038      O1039   0.964       .  S
O1039     Eu1059   2.338       .  S
O1040      C1063   1.298       .  A
O1040     Eu1056   2.500       .  S
O1041      C1064   1.285       .  A
O1042      C1065   1.297       .  A
O1042     Eu1058   2.494       .  S
O1043      C1066   1.285       .  A
O1043     Eu1059   2.438       .  S
O1044      C1067   1.298       .  A
O1045      C1068   1.285       .  A
O1045     Eu1058   2.437       .  S
O1046      C1069   1.284       .  A
O1047      C1070   1.297       .  A
O1048      C1069   1.302       .  A
O1048     Eu1058   2.501       .  S
O1049     Eu1059   2.454       .  S
O1050     Eu1056   2.459       .  S
O1051     Eu1057   2.496       .  S
O1052      C1067   1.287   1_455  A
O1053      C1066   1.303       .  A
O1054      C1063   1.287       .  A
O1054     Eu1060   2.443       .  S
Eu1056     O1074   2.341       .  S
Eu1056     O1062   2.349   1_655  S
Eu1058     O1072   2.364       .  S
Eu1059     O1061   2.347       .  S
Eu1060     O1074   2.350       .  S
Eu1060     O1062   2.367   1_655  S
H1073      O1074   0.964       .  S
C1075      C1076   1.400       .  A
C1075      C1080   1.391       .  A
C1075      F1082   1.358       .  S
C1077      C1078   1.385       .  A
C1077      F1084   1.359       .  S
C1078      C1079   1.399       .  A
C1078      F1083   1.358       .  S
C1080      F1081   1.358       .  S
C1085      C1086   1.398       .  A
C1085      C1090   1.386       .  A
C1085      F1092   1.358       .  S
C1087      C1088   1.389       .  A
C1087      F1094   1.359       .  S
C1088      C1089   1.398       .  A
C1088      F1093   1.358       .  S
C1090      F1091   1.359       .  S
C1095      C1096   1.408       .  A
C1095      C1100   1.385       .  A
C1095      F1102   1.359       .  S
C1096      C1097   1.394       .  A
C1097      C1098   1.390       .  A
C1098      C1099   1.408       .  A
C1099      C1100   1.393       .  A
C1100      F1101   1.358       .  S
