geometry optimzed in LAMMPS
_audit_creation_date              2020-11-30 
_audit_creation_method            'lammps2cif' 
_symmetry_space_group_name_H-M    'P1' 
_symmetry_Int_Tables_number       1 
_symmetry_cell_setting            triclinic 
loop_ 
_symmetry_equiv_pos_as_xyz 
  x,y,z 
_cell_length_a                    57.43681450691518 
_cell_length_b                    57.274680374978736 
_cell_length_c                    57.24174362865147 
_cell_angle_alpha                 90.01186192523936 
_cell_angle_beta                  89.97636335234029 
_cell_angle_gamma                 89.97310121505333 
loop_ 
_atom_site_label 
_atom_site_type_symbol 
_atom_site_fract_x 
_atom_site_fract_y 
_atom_site_fract_z 
_atom_site_charge 
N1          N  0.49309490  0.79461829  0.63561043    -0.27410
N2          N  0.49308136  0.81740013  0.63232559    -0.35270
C3          C  0.49106982  0.82204843  0.60953159     0.00930
C4          C  0.48978455  0.80118711  0.59755609     0.06960
C5          C  0.49116081  0.78396139  0.61460655    -0.06140
H6          H  0.49084492  0.83945716  0.60218640     0.07620
H7          H  0.49098799  0.76526235  0.61195540     0.08820
Cu8        Cu  0.49592489  0.84135421  0.65873157     0.44170
Cu9        Cu  0.49604102  0.78165357  0.66947229     0.41990
Cu10       Cu  0.49987275  0.82752403  0.71833596     0.43880
N11         N  0.49659280  0.86631022  0.68432240    -0.34800
N12         N  0.49774467  0.86212620  0.70695221    -0.29050
C13         C  0.49720950  0.88281844  0.71844716    -0.05150
C14         C  0.49566351  0.90054814  0.70187751     0.07060
C15         C  0.49536582  0.88927459  0.68061687     0.00860
H16         H  0.49798160  0.88478864  0.73722634     0.08510
H17         H  0.49425062  0.89720952  0.66349654     0.07590
N18         N  0.50120629  0.79117256  0.72210915    -0.36250
N19         N  0.49949177  0.77534730  0.70521637    -0.28430
C20         C  0.50021213  0.75389889  0.71478683    -0.03660
C21         C  0.50273637  0.75629038  0.73860972     0.04950
C22         C  0.50325085  0.78002650  0.74270743     0.03040
H23         H  0.49882980  0.73774381  0.70509021     0.08140
H24         H  0.50453151  0.78859647  0.75950101     0.06980
N25         N  0.49350207  0.58204547  0.84760155    -0.27410
N26         N  0.49330027  0.57867442  0.87038454    -0.35270
C27         C  0.49144697  0.55586062  0.87491893     0.00930
C28         C  0.49044545  0.54396275  0.85398797     0.06960
C29         C  0.49182808  0.56108129  0.83683302    -0.06140
H30         H  0.49105850  0.54845443  0.89230697     0.07620
H31         H  0.49178999  0.55851025  0.81811146     0.08820
Cu32       Cu  0.49551133  0.60496975  0.89455006     0.44170
Cu33       Cu  0.49622328  0.61595584  0.83478629     0.41990
Cu34       Cu  0.49909099  0.66460792  0.88089464     0.43880
N35         N  0.49565553  0.63048378  0.91962359    -0.34800
N36         N  0.49673809  0.65311184  0.91547183    -0.29050
C37         C  0.49596544  0.66457548  0.93617835    -0.05150
C38         C  0.49431948  0.64800232  0.95389537     0.07060
C39         C  0.49421991  0.62675556  0.94259599     0.00860
H40         H  0.49666120  0.68334470  0.93817073     0.08510
H41         H  0.49315292  0.60963539  0.95052080     0.07590
N42         N  0.50048416  0.66859898  0.84454401    -0.36250
N43         N  0.49916582  0.65174471  0.82864172    -0.28430
C44         C  0.49979003  0.66139629  0.80722250    -0.03660
C45         C  0.50171965  0.68525445  0.80970887     0.04950
C46         C  0.50213516  0.68927052  0.83347309     0.03040
H47         H  0.49866158  0.65173623  0.79101946     0.08140
H48         H  0.50304688  0.70604507  0.84211359     0.06980
N49         N  0.87638965  0.65080573  0.52913869    -0.27410
N50         N  0.88001233  0.62815232  0.52729989    -0.35270
C51         C  0.90287860  0.62395938  0.52632177     0.00930
C52         C  0.91446076  0.64501284  0.52751934     0.06960
C53         C  0.89716932  0.66185724  0.52929821    -0.06140
H54         H  0.91051037  0.60674482  0.52481579     0.07620
H55         H  0.89947780  0.68055225  0.53065410     0.08820
Cu56       Cu  0.85391683  0.60383896  0.52598172     0.44170
Cu57       Cu  0.84252588  0.66319464  0.53080805     0.41990
Cu58       Cu  0.79424142  0.61742545  0.52470975     0.43880
N59         N  0.82848133  0.57882848  0.52491952    -0.34800
N60         N  0.80589288  0.58297438  0.52446937    -0.29050
C61         C  0.79449108  0.56227908  0.52419747    -0.05150
C62         C  0.81106385  0.54456910  0.52448204     0.07060
C63         C  0.83224711  0.55584322  0.52491905     0.00860
H64         H  0.77576256  0.56030669  0.52392994     0.08510
H65         H  0.84934090  0.54789674  0.52535964     0.07590
N66         N  0.79020448  0.65361739  0.52635088    -0.36250
N67         N  0.80693075  0.66932276  0.52915507    -0.28430
C68         C  0.79735841  0.69070281  0.53004365    -0.03660
C69         C  0.77354572  0.68857736  0.52720903     0.04950
C70         C  0.76966941  0.66480330  0.52516403     0.03040
H71         H  0.80721151  0.70642298  0.53315438     0.08140
H72         H  0.75305295  0.65620410  0.52290778     0.06980
N73         N  0.66757130  0.86353261  0.52932830    -0.27410
N74         N  0.64497613  0.86746327  0.53032582    -0.35270
C75         C  0.64095555  0.89039261  0.53035621     0.00930
C76         C  0.66201544  0.90182136  0.52931132     0.06960
C77         C  0.67875982  0.88430850  0.52870267    -0.06140
H78         H  0.62378269  0.89817079  0.53077082     0.07620
H79         H  0.69743694  0.88646275  0.52758964     0.08820
Cu80       Cu  0.61999407  0.84218023  0.53033431     0.44170
Cu81       Cu  0.67937323  0.82924001  0.52824262     0.41990
Cu82       Cu  0.63123087  0.78310330  0.52253376     0.43880
N83         N  0.59393741  0.81812992  0.52796385    -0.34800
N84         N  0.59737927  0.79558419  0.52489236    -0.29050
C85         C  0.57647253  0.78481988  0.52387783    -0.05150
C86         C  0.55935988  0.80178412  0.52633258     0.07060
C87         C  0.57113482  0.82256614  0.52885688     0.00860
H88         H  0.57395248  0.76627373  0.52135316     0.08510
H89         H  0.56368877  0.83978396  0.53109192     0.07590
N90         N  0.66694159  0.77726489  0.52414693    -0.36250
N91         N  0.68354532  0.79312845  0.52680823    -0.28430
C92         C  0.70416646  0.78215256  0.52823779    -0.03660
C93         C  0.70050714  0.75833559  0.52650805     0.04950
C94         C  0.67671608  0.75596058  0.52358293     0.03040
H95         H  0.72068777  0.79093315  0.53050085     0.08140
H96         H  0.66701640  0.74010762  0.52066774     0.06980
N97         N  0.87483137  0.47382343  0.70404288    -0.27410
N98         N  0.87877448  0.47417641  0.68134916    -0.35270
C99         C  0.90170220  0.47424618  0.67740135     0.00930
C100        C  0.91305002  0.47390934  0.69862468     0.06960
C101        C  0.89550887  0.47366308  0.71534159    -0.06140
H102        H  0.90954514  0.47438330  0.66020806     0.07620
H103        H  0.89758539  0.47324896  0.73411847     0.08820
Cu104      Cu  0.85318536  0.47404372  0.65642190     0.44170
Cu105      Cu  0.84069220  0.47316181  0.71610709     0.41990
Cu106      Cu  0.79373317  0.46851405  0.66886165     0.43880
N107        N  0.82819812  0.47321131  0.63090904    -0.34800
N108        N  0.80567055  0.47098933  0.63476269    -0.29050
C109        C  0.79443388  0.47089722  0.61399956    -0.05150
C110        C  0.81104423  0.47313894  0.59651253     0.07060
C111        C  0.83210348  0.47453947  0.60796689     0.00860
H112        H  0.77580849  0.46912337  0.61183410     0.08510
H113        H  0.84919154  0.47622162  0.60017435     0.07590
N114        N  0.78859685  0.46968903  0.70477364    -0.36250
N115        N  0.80479106  0.47187251  0.72113947    -0.28430
C116        C  0.79430315  0.47299302  0.74209137    -0.03660
C117        C  0.77048509  0.47163041  0.73884889     0.04950
C118        C  0.76755476  0.46920088  0.71500490     0.03040
H119        H  0.80339776  0.47481865  0.75854024     0.08140
H120        H  0.75146537  0.46670021  0.70559909     0.06980
N121        N  0.66724249  0.47385907  0.91717716    -0.27410
N122        N  0.64479313  0.47099614  0.92097543    -0.35270
C123        C  0.64071184  0.47037998  0.94389719     0.00930
C124        C  0.66161534  0.47289658  0.95539139     0.06960
C125        C  0.67830645  0.47502636  0.93798031    -0.06140
H126        H  0.62362377  0.46839720  0.95162136     0.07620
H127        H  0.69684629  0.47747276  0.94021600     0.08820
Cu128      Cu  0.62020520  0.46881451  0.89540919     0.44170
Cu129      Cu  0.67910149  0.47589250  0.88307556     0.41990
Cu130      Cu  0.63197515  0.47118515  0.83575946     0.43880
N131        N  0.59439485  0.46945466  0.87100183    -0.34800
N132        N  0.59794900  0.47049411  0.84827229    -0.29050
C133        C  0.57705482  0.47140656  0.83742814    -0.05150
C134        C  0.55986347  0.47099285  0.85452453     0.07060
C135        C  0.57158313  0.46972831  0.87545463     0.00860
H136        H  0.57459634  0.47250902  0.81872545     0.08510
H137        H  0.56409668  0.46924522  0.89280096     0.07590
N138        N  0.66795528  0.47215015  0.83081740    -0.36250
N139        N  0.68413642  0.47430928  0.84720538    -0.28430
C140        C  0.70520781  0.47460831  0.83704208    -0.03660
C141        C  0.70233714  0.47209652  0.81321227     0.04950
C142        C  0.67851015  0.47086180  0.80990405     0.03040
H143        H  0.72127312  0.47711582  0.84648490     0.08140
H144        H  0.66945541  0.46907619  0.79342901     0.06980
N145        N  0.81411272  0.86251131  0.02538350    -0.27410
N146        N  0.83671352  0.86656837  0.02485416    -0.35270
C147        C  0.84059094  0.88954691  0.02489956     0.00930
C148        C  0.81947663  0.90097517  0.02548070     0.06960
C149        C  0.80282190  0.88330631  0.02574734    -0.06140
H150        H  0.85772890  0.89738955  0.02461028     0.07620
H151        H  0.78410924  0.88538726  0.02628135     0.08820
Cu152      Cu  0.86202232  0.84137414  0.02459033     0.44170
Cu153      Cu  0.80246067  0.82788746  0.02596478     0.41990
Cu154      Cu  0.85095481  0.78196942  0.03069533     0.43880
N155        N  0.88823387  0.81713816  0.02556428    -0.34800
N156        N  0.88482972  0.79450823  0.02801976    -0.29050
C157        C  0.90575258  0.78365878  0.02820786    -0.05150
C158        C  0.92288482  0.80061340  0.02580441     0.07060
C159        C  0.91104564  0.82150364  0.02420017     0.00860
H160        H  0.90827849  0.76504273  0.03014891     0.08510
H161        H  0.91847997  0.83876299  0.02233723     0.07590
N162        N  0.81521774  0.77576390  0.02966515    -0.36250
N163        N  0.79843322  0.79150280  0.02731432    -0.28430
C164        C  0.77790852  0.78026484  0.02612122    -0.03660
C165        C  0.78176975  0.75639416  0.02771886     0.04950
C166        C  0.80567249  0.75433714  0.03026918     0.03040
H167        H  0.76128775  0.78890452  0.02401608     0.08140
H168        H  0.81566862  0.73862299  0.03285448     0.06980
N169        N  0.66994951  0.58349368  0.02741506    -0.27410
N170        N  0.64728922  0.58053040  0.02961396    -0.35270
C171        C  0.64230164  0.55773643  0.02988466     0.00930
C172        C  0.66280122  0.54540182  0.02781391     0.06960
C173        C  0.68018691  0.56223981  0.02633566    -0.06140
H174        H  0.62488056  0.55067074  0.03123581     0.07620
H175        H  0.69867898  0.55928882  0.02428467     0.08820
Cu176      Cu  0.62374166  0.60726822  0.03085041     0.44170
Cu177      Cu  0.68324361  0.61735303  0.02527027     0.41990
Cu178      Cu  0.63700408  0.66551776  0.01895051     0.43880
N179        N  0.59869867  0.63251067  0.02849654    -0.34800
N180        N  0.60264304  0.65464397  0.02356409    -0.29050
C181        C  0.58191431  0.66589361  0.02231509    -0.05150
C182        C  0.56441119  0.64963255  0.02657433     0.07060
C183        C  0.57585146  0.62884443  0.03041468     0.00860
H184        H  0.57975181  0.68418015  0.01811438     0.08510
H185        H  0.56808681  0.61198201  0.03387706     0.07590
N186        N  0.67312497  0.66983397  0.02016461    -0.36250
N187        N  0.68909201  0.65336228  0.02319557    -0.28430
C188        C  0.71009268  0.66361365  0.02504600    -0.03660
C189        C  0.70736849  0.68760026  0.02326359     0.04950
C190        C  0.68370922  0.69075645  0.01974392     0.03040
H191        H  0.72619922  0.65425184  0.02794861     0.08140
H192        H  0.67457827  0.70694064  0.01681959     0.06980
N193        N  0.81469254  0.97295066  0.91523967    -0.27410
N194        N  0.83727326  0.97186587  0.91927845    -0.35270
C195        C  0.84114396  0.97128653  0.94226092     0.00930
C196        C  0.82002534  0.97203477  0.95365831     0.06960
C197        C  0.80339373  0.97307031  0.93601682    -0.06140
H198        H  0.85826699  0.97062588  0.95011964     0.07620
H199        H  0.78470124  0.97408966  0.93810387     0.08820
Cu200      Cu  0.86248480  0.97202875  0.89403690     0.44170
Cu201      Cu  0.80301875  0.97462729  0.88074331     0.41990
Cu202      Cu  0.85137797  0.97928427  0.83472524     0.43880
N203        N  0.88857336  0.97354459  0.86975131    -0.34800
N204        N  0.88514127  0.97643086  0.84716779    -0.29050
C205        C  0.90601704  0.97683149  0.83626557    -0.05150
C206        C  0.92314142  0.97411907  0.85315560     0.07060
C207        C  0.91137460  0.97211374  0.87405156     0.00860
H208        H  0.90850486  0.97911668  0.81767309     0.08510
H209        H  0.91884351  0.96991161  0.89126646     0.07590
N210        N  0.81574677  0.97816958  0.82864818    -0.36250
N211        N  0.79896280  0.97610071  0.84444511    -0.28430
C212        C  0.77841231  0.97496226  0.83326526    -0.03660
C213        C  0.78236850  0.97616712  0.80943423     0.04950
C214        C  0.80621118  0.97851466  0.80721961     0.03040
H215        H  0.76174203  0.97315071  0.84188346     0.08140
H216        H  0.81609342  0.98079381  0.79134049     0.06980
N217        N  0.67076722  0.97504673  0.63691255    -0.27410
N218        N  0.64812735  0.97755236  0.63408696    -0.35270
C219        C  0.64301493  0.97790412  0.61131515     0.00930
C220        C  0.66342984  0.97558095  0.59888110     0.06960
C221        C  0.68088365  0.97384717  0.61561133    -0.06140
H222        H  0.62556884  0.97941316  0.60433853     0.07620
H223        H  0.69932407  0.97149087  0.61256272     0.08820
Cu224      Cu  0.62483416  0.97894488  0.66101594     0.44170
Cu225      Cu  0.68416532  0.97274866  0.67064167     0.41990
Cu226      Cu  0.63826573  0.96785706  0.71941687     0.43880
N227        N  0.59990802  0.97639463  0.68631983    -0.34800
N228        N  0.60391708  0.97175672  0.70851427    -0.29050
C229        C  0.58322076  0.97015945  0.71976220    -0.05150
C230        C  0.56568279  0.97386273  0.70341620     0.07060
C231        C  0.57704634  0.97777198  0.68259998     0.00860
H232        H  0.58112206  0.96609551  0.73809723     0.08510
H233        H  0.56923594  0.98090933  0.66568538     0.07590
N234        N  0.67434563  0.96926798  0.72331270    -0.36250
N235        N  0.69020049  0.97149839  0.70658520    -0.28430
C236        C  0.71132466  0.97338203  0.71654551    -0.03660
C237        C  0.70871741  0.97255693  0.74055396     0.04950
C238        C  0.68510509  0.96952982  0.74414600     0.03040
H239        H  0.72741834  0.97562373  0.70697569     0.08140
H240        H  0.67620372  0.96735180  0.76061469     0.06980
N241        N  0.99094908  0.86391120  0.84633613    -0.27410
N242        N  0.99145845  0.86745165  0.86909055    -0.35270
C243        C  0.99279695  0.89029942  0.87351681     0.00930
C244        C  0.99316782  0.90212806  0.85257011     0.06960
C245        C  0.99194283  0.88488988  0.83547031    -0.06140
H246        H  0.99338116  0.89776347  0.89087741     0.07620
H247        H  0.99169093  0.88738886  0.81674135     0.08820
Cu248      Cu  0.99063439  0.84157369  0.89361534     0.44170
Cu249      Cu  0.98890527  0.82968236  0.83391508     0.41990
Cu250      Cu  0.99034356  0.78202371  0.88133846     0.43880
N251        N  0.99174159  0.81691246  0.91935330    -0.34800
N252        N  0.99176801  0.79419208  0.91565810    -0.29050
C253        C  0.99274893  0.78319909  0.93657667    -0.05150
C254        C  0.99342907  0.80018957  0.95394231     0.07060
C255        C  0.99274396  0.82119904  0.94225115     0.00860
H256        H  0.99288388  0.76446193  0.93894297     0.08510
H257        H  0.99289280  0.83850622  0.94984241     0.07590
N258        N  0.98794686  0.77709635  0.84522506    -0.36250
N259        N  0.98708940  0.79352931  0.82885358    -0.28430
C260        C  0.98490147  0.78318133  0.80784507    -0.03660
C261        C  0.98453778  0.75932612  0.81111829     0.04950
C262        C  0.98649322  0.75603953  0.83489701     0.03040
H263        H  0.98374489  0.79237760  0.79138064     0.08140
H264        H  0.98664512  0.73953241  0.84407839     0.06980
N265        N  0.98062731  0.58316470  0.70645599    -0.27410
N266        N  0.98263554  0.57954423  0.68379612    -0.35270
C267        C  0.98451669  0.55669422  0.67958227     0.00930
C268        C  0.98369355  0.54495453  0.70057213     0.06960
C269        C  0.98118850  0.56224770  0.71747223    -0.06140
H270        H  0.98614234  0.54915430  0.66232019     0.07620
H271        H  0.97964547  0.55981891  0.73614873     0.08820
Cu272      Cu  0.98252169  0.60528499  0.65908104     0.44170
Cu273      Cu  0.97720244  0.61737910  0.71855548     0.41990
Cu274      Cu  0.97609727  0.66467689  0.67085802     0.43880
N275        N  0.98293017  0.62990915  0.63325664    -0.34800
N276        N  0.98048411  0.65252893  0.63677625    -0.29050
C277        C  0.98137019  0.66350771  0.61585028    -0.05150
C278        C  0.98452908  0.64662812  0.59865280     0.07060
C279        C  0.98540037  0.62568247  0.61044990     0.00860
H280        H  0.97954145  0.68213757  0.61334025     0.08510
H281        H  0.98739907  0.60844088  0.60297136     0.07590
N282        N  0.97429754  0.66982681  0.70697727    -0.36250
N283        N  0.97506764  0.65351510  0.72346867    -0.28430
C284        C  0.97521603  0.66401642  0.74450708    -0.03660
C285        C  0.97425122  0.68784170  0.74114274     0.04950
C286        C  0.97376002  0.69095587  0.71725890     0.03040
H287        H  0.97652599  0.65496177  0.76103865     0.08140
H288        H  0.97390155  0.70741281  0.70798744     0.06980
N289        N  0.49269498  0.15051758  0.63599825    -0.27410
N290        N  0.49134736  0.12778631  0.63259432    -0.35270
C291        C  0.48859935  0.12341091  0.60982937     0.00930
C292        C  0.48817117  0.14438836  0.59801635     0.06960
C293        C  0.49085322  0.16140155  0.61511297    -0.06140
H294        H  0.48738782  0.10608618  0.60237725     0.07620
H295        H  0.49174406  0.18009245  0.61255811     0.08820
Cu296      Cu  0.49367503  0.10338316  0.65863887     0.44170
Cu297      Cu  0.49707620  0.16324379  0.66976305     0.41990
Cu298      Cu  0.49977843  0.11673503  0.71794243     0.43880
N299        N  0.49488164  0.07818488  0.68397965    -0.34800
N300        N  0.49704663  0.08228773  0.70654457    -0.29050
C301        C  0.49696215  0.06160168  0.71801276    -0.05150
C302        C  0.49464178  0.04393063  0.70149894     0.07060
C303        C  0.49342032  0.05522695  0.68027793     0.00860
H304        H  0.49864431  0.05959693  0.73672732     0.08510
H305        H  0.49164970  0.04730996  0.66320258     0.07590
N306        N  0.50041858  0.15293242  0.72228234    -0.36250
N307        N  0.49956424  0.16905276  0.70563980    -0.28430
C308        C  0.49968735  0.19030013  0.71566957    -0.03660
C309        C  0.50029584  0.18748813  0.73962324     0.04950
C310        C  0.50106131  0.16363751  0.74316965     0.03040
H311        H  0.49886959  0.20662668  0.70619957     0.08140
H312        H  0.50223013  0.15459732  0.75970168     0.06980
N313        N  0.49364783  0.36270442  0.84807884    -0.27410
N314        N  0.49250506  0.36602522  0.87083942    -0.35270
C315        C  0.49021418  0.38880999  0.87532820     0.00930
C316        C  0.48989511  0.40069488  0.85437364     0.06960
C317        C  0.49213111  0.38363566  0.83727114    -0.06140
H318        H  0.48920250  0.39621259  0.89269636     0.07620
H319        H  0.49292714  0.38623470  0.81857118     0.08820
Cu320      Cu  0.49450407  0.33970718  0.89496474     0.44170
Cu321      Cu  0.49755182  0.32899514  0.83528291     0.41990
Cu322      Cu  0.49930048  0.28016390  0.88116718     0.43880
N323        N  0.49525145  0.31413922  0.91993461    -0.34800
N324        N  0.49683222  0.29154568  0.91574510    -0.29050
C325        C  0.49655464  0.28005156  0.93643920    -0.05150
C326        C  0.49472325  0.29657982  0.95418103     0.07060
C327        C  0.49398216  0.31782130  0.94291622     0.00860
H328        H  0.49775344  0.26130482  0.93840386     0.08510
H329        H  0.49263200  0.33491194  0.95087172     0.07590
N330        N  0.50120545  0.27638509  0.84484618    -0.36250
N331        N  0.50076051  0.29333805  0.82903921    -0.28430
C332        C  0.50173927  0.28382987  0.80758004    -0.03660
C333        C  0.50301488  0.25986105  0.80986373     0.04950
C334        C  0.50240935  0.25576722  0.83366408     0.03040
H335        H  0.50049907  0.29370494  0.79153856     0.08140
H336        H  0.50246330  0.23893881  0.84224758     0.06980
O337        O  0.52949301  0.97229106  0.72491864    -0.73060
O338        O  0.45825696  0.97246923  0.72267121    -0.74040
O339        O  0.49408226  0.93654381  0.72399700    -0.62660
O340        O  0.49409760  0.00805369  0.72375089    -0.71070
O341        O  0.49426955  0.00658121  0.68501323    -0.70630
O342        O  0.49526549  0.93785540  0.68527852    -0.61880
O343        O  0.46043008  0.97177818  0.68397263    -0.74390
O344        O  0.52890596  0.97282274  0.68615904    -0.73170
Cu345      Cu  0.49388404  0.97231705  0.72543065     1.04560
Cu346      Cu  0.49474234  0.97222294  0.68399686     1.04330
C347        C  0.54019901  0.97283132  0.70529718     0.93130
C348        C  0.44833407  0.97221931  0.70260024     0.92270
C349        C  0.49495083  0.92614631  0.70419164     0.84420
C350        C  0.49429773  0.01835950  0.70388446     0.90690
N351        N  0.99163633  0.15354008  0.91630724    -0.27410
N352        N  0.99120542  0.13083814  0.92009708    -0.35270
C353        C  0.99190969  0.12665978  0.94302732     0.00930
C354        C  0.99280266  0.14771584  0.95464221     0.06960
C355        C  0.99257155  0.16462303  0.93718920    -0.06140
H356        H  0.99173214  0.10939088  0.95069670     0.07620
H357        H  0.99301463  0.18336683  0.93946944     0.08820
Cu358      Cu  0.99001604  0.10602287  0.89444821     0.44170
Cu359      Cu  0.99079374  0.16560090  0.88193152     0.41990
Cu360      Cu  0.98879787  0.11793765  0.83466019     0.43880
N361        N  0.99099628  0.08014527  0.86986152    -0.34800
N362        N  0.99069352  0.08374483  0.84711104    -0.29050
C363        C  0.99190208  0.06281716  0.83617633    -0.05150
C364        C  0.99305854  0.04553116  0.85321106     0.07060
C365        C  0.99240521  0.05727818  0.87420963     0.00860
H366        H  0.99187319  0.06038714  0.81743531     0.08510
H367        H  0.99288842  0.04974794  0.89154135     0.07590
N368        N  0.98756352  0.15406500  0.82947065    -0.36250
N369        N  0.98873413  0.17050780  0.84579787    -0.28430
C370        C  0.98759738  0.19155378  0.83543232    -0.03660
C371        C  0.98567032  0.18830989  0.81159973     0.04950
C372        C  0.98544995  0.16439903  0.80845811     0.03040
H373        H  0.98749427  0.20800796  0.84470420     0.08140
H374        H  0.98389823  0.15515172  0.79204940     0.06980
N375        N  0.97967325  0.29363932  0.63604455    -0.27410
N376        N  0.98261484  0.31618225  0.63239261    -0.35270
C377        C  0.98535682  0.32014303  0.60956371     0.00930
C378        C  0.98414476  0.29911532  0.59789866     0.06960
C379        C  0.98050615  0.28246461  0.61520819    -0.06140
H380        H  0.98773264  0.33727676  0.60196161     0.07620
H381        H  0.97827950  0.26386192  0.61282960     0.08820
Cu382      Cu  0.98234464  0.34114768  0.65803761     0.44170
Cu383      Cu  0.97471891  0.28173491  0.67012038     0.41990
Cu384      Cu  0.97658556  0.32908466  0.71755252     0.43880
N385        N  0.98226187  0.36695493  0.68283507    -0.34800
N386        N  0.98014441  0.36326793  0.70547764    -0.29050
C387        C  0.98062304  0.38413497  0.71659315    -0.05150
C388        C  0.98315917  0.40150594  0.69980032     0.07060
C389        C  0.98410399  0.38984498  0.67874479     0.00860
H390        H  0.97900087  0.38647747  0.73527545     0.08510
H391        H  0.98582480  0.39746918  0.66153370     0.07590
N392        N  0.97401073  0.29302788  0.72264433    -0.36250
N393        N  0.97284122  0.27667724  0.70623138    -0.28430
C394        C  0.97218811  0.25559532  0.71658772    -0.03660
C395        C  0.97299209  0.25873186  0.74050526     0.04950
C396        C  0.97434986  0.28259987  0.74369954     0.03040
H397        H  0.97245385  0.23915266  0.70729525     0.08140
H398        H  0.97610929  0.29172418  0.76015625     0.06980
N399        N  0.10399552  0.97219237  0.84770312    -0.27410
N400        N  0.10024887  0.97414338  0.87034135    -0.35270
C401        C  0.07738069  0.97505850  0.87444019     0.00930
C402        C  0.06583466  0.97367333  0.85337166     0.06960
C403        C  0.08321904  0.97187812  0.83656971    -0.06140
H404        H  0.06970800  0.97654191  0.89164822     0.07620
H405        H  0.08097025  0.97034182  0.81787101     0.08820
Cu406      Cu  0.12600312  0.97524643  0.89502099     0.44170
Cu407      Cu  0.13810977  0.97042842  0.83570374     0.41990
Cu408      Cu  0.18566520  0.97548549  0.88269538     0.43880
N409        N  0.15079464  0.97532749  0.92069168    -0.34800
N410        N  0.17345543  0.97540565  0.91697368    -0.29050
C411        C  0.18446615  0.97510062  0.93788566    -0.05150
C412        C  0.16756495  0.97478113  0.95529154     0.07060
C413        C  0.14658572  0.97495837  0.94362127     0.00860
H414        H  0.20315651  0.97502974  0.94020995     0.08510
H415        H  0.12934388  0.97475593  0.95125179     0.07590
N416        N  0.19036690  0.97440292  0.84653569    -0.36250
N417        N  0.17395598  0.97199439  0.83041113    -0.28430
C418        C  0.18402044  0.97148808  0.80922322    -0.03660
C419        C  0.20780626  0.97417297  0.81192631     0.04950
C420        C  0.21115743  0.97570121  0.83582584     0.03040
H421        H  0.17452022  0.96874521  0.79320552     0.08140
H422        H  0.22759007  0.97771299  0.84483767     0.06980
N423        N  0.38466448  0.97497694  0.70505715    -0.27410
N424        N  0.38851338  0.97290601  0.68242249    -0.35270
C425        C  0.41146332  0.97144025  0.67861834     0.00930
C426        C  0.42284254  0.97258183  0.69986083     0.06960
C427        C  0.40531276  0.97483607  0.71640689    -0.06140
H428        H  0.41932822  0.96977827  0.66151577     0.07620
H429        H  0.40737807  0.97639482  0.73512583     0.08820
Cu430      Cu  0.36255422  0.97224462  0.65746168     0.44170
Cu431      Cu  0.35076766  0.97745560  0.71742294     0.41990
Cu432      Cu  0.30273912  0.97243005  0.67183301     0.43880
N433        N  0.33644371  0.97191725  0.63265060    -0.34800
N434        N  0.31392795  0.97195887  0.63727788    -0.29050
C435        C  0.30198569  0.97192031  0.61687255    -0.05150
C436        C  0.31804818  0.97185768  0.59872083     0.07060
C437        C  0.33956932  0.97184980  0.60951484     0.00860
H438        H  0.28321008  0.97202839  0.61540035     0.08510
H439        H  0.35645043  0.97187932  0.60110795     0.07590
N440        N  0.29844275  0.97396050  0.70794641    -0.36250
N441        N  0.31513090  0.97636120  0.72375502    -0.28430
C442        C  0.30543529  0.97716426  0.74511352    -0.03660
C443        C  0.28157224  0.97471877  0.74280868     0.04950
C444        C  0.27782303  0.97297785  0.71898552     0.03040
H445        H  0.31522785  0.97991077  0.76095388     0.08140
H446        H  0.26123510  0.97102472  0.71025139     0.06980
O447        O  0.99447293  0.00955143  0.83139747    -0.73060
O448        O  0.99406947  0.93830386  0.83102639    -0.74040
O449        O  0.95896349  0.97426477  0.83131204    -0.62660
O450        O  0.03000173  0.97363697  0.83135869    -0.71070
O451        O  0.02868449  0.97386949  0.87010900    -0.70630
O452        O  0.96016681  0.97363615  0.87007382    -0.61880
O453        O  0.99445242  0.93925871  0.86978469    -0.74390
O454        O  0.99419888  0.00826145  0.87014921    -0.73170
Cu455      Cu  0.99442852  0.97394341  0.82971638     1.04560
Cu456      Cu  0.99441504  0.97374908  0.87118358     1.04330
C457        C  0.99404582  0.01994577  0.85119927     0.93130
C458        C  0.99401081  0.92773538  0.85073567     0.92270
C459        C  0.94858984  0.97401276  0.85111666     0.84420
C460        C  0.04034284  0.97371381  0.85118657     0.90690
N461        N  0.16302044  0.47125768  0.63700844    -0.27410
N462        N  0.14034405  0.47055556  0.63349406    -0.35270
C463        C  0.13590465  0.47083250  0.61057559     0.00930
C464        C  0.15677048  0.47174756  0.59869290     0.06960
C465        C  0.17381009  0.47196585  0.61597822    -0.06140
H466        H  0.11860206  0.47053035  0.60310188     0.07620
H467        H  0.19246250  0.47274473  0.61347825     0.08820
Cu468      Cu  0.11607069  0.46999665  0.65968391     0.44170
Cu469      Cu  0.17550877  0.47160247  0.67130906     0.41990
Cu470      Cu  0.12865830  0.47550872  0.71924558     0.43880
N471        N  0.09058428  0.47137759  0.68464643    -0.34800
N472        N  0.09430365  0.47368396  0.70726468    -0.29050
C473        C  0.07341593  0.47440870  0.71828686    -0.05150
C474        C  0.05604453  0.47251670  0.70142182     0.07060
C475        C  0.06773535  0.47063303  0.68047755     0.00860
H476        H  0.07107164  0.47636895  0.73693608     0.08510
H477        H  0.06015943  0.46901690  0.66324460     0.07590
N478        N  0.16482224  0.47411731  0.72401370    -0.36250
N479        N  0.18094438  0.47222495  0.70750054    -0.28430
C480        C  0.20198844  0.47096754  0.71775175    -0.03660
C481        C  0.19920277  0.47197388  0.74178262     0.04950
C482        C  0.17538023  0.47430094  0.74500540     0.03040
H483        H  0.21823733  0.46932176  0.70832474     0.08140
H484        H  0.16618695  0.47661309  0.76127612     0.06980
N485        N  0.37906212  0.47035182  0.84592318    -0.27410
N486        N  0.38231193  0.47035244  0.86870523    -0.35270
C487        C  0.40502434  0.47108923  0.87351309     0.00930
C488        C  0.41710665  0.47158204  0.85275890     0.06960
C489        C  0.40015608  0.47106615  0.83537647    -0.06140
H490        H  0.41219986  0.47127857  0.89099288     0.07620
H491        H  0.40292356  0.47124931  0.81668519     0.08820
Cu492      Cu  0.35620440  0.46986959  0.89262104     0.44170
Cu493      Cu  0.34490251  0.46979629  0.83335704     0.41990
Cu494      Cu  0.29697923  0.47327237  0.88062063     0.43880
N495        N  0.33200014  0.47101342  0.91843305    -0.34800
N496        N  0.30935210  0.47241526  0.91500655    -0.29050
C497        C  0.29874495  0.47304083  0.93613268    -0.05150
C498        C  0.31595782  0.47203077  0.95325131     0.07060
C499        C  0.33664882  0.47076772  0.94125747     0.00860
H500        H  0.28013605  0.47422175  0.93881434     0.08510
H501        H  0.35399582  0.46978326  0.94856791     0.07590
N502        N  0.29234354  0.47249588  0.84425810    -0.36250
N503        N  0.30881511  0.47078079  0.82806673    -0.28430
C504        C  0.29868098  0.47008475  0.80687961    -0.03660
C505        C  0.27475683  0.47185177  0.80960241     0.04950
C506        C  0.27148584  0.47312241  0.83356992     0.03040
H507        H  0.30825411  0.46775338  0.79083725     0.08140
H508        H  0.25501808  0.47445162  0.84265774     0.06980
O509        O  0.98507254  0.50778107  0.68352648    -0.73060
O510        O  0.98450093  0.43884352  0.68308069    -0.74040
O511        O  0.95051945  0.47366027  0.68246934    -0.62660
O512        O  0.01915254  0.47296080  0.68405853    -0.71070
O513        O  0.01966734  0.47306070  0.72281127    -0.70630
O514        O  0.94846919  0.47334294  0.72119033    -0.61880
O515        O  0.98370506  0.43747272  0.72181498    -0.74390
O516        O  0.98393893  0.50882490  0.72226496    -0.73170
Cu517      Cu  0.98486962  0.47332181  0.68214407     1.04560
Cu518      Cu  0.98395203  0.47316057  0.72358476     1.04330
C519        C  0.98432780  0.51934989  0.70253144     0.93130
C520        C  0.98385615  0.42710903  0.70197799     0.92270
C521        C  0.93850513  0.47362051  0.70117629     0.84420
C522        C  0.03045001  0.47290499  0.70320529     0.90690
O523        O  0.48860879  0.50680981  0.87106060    -0.73060
O524        O  0.48817741  0.43790099  0.87129161    -0.74040
O525        O  0.52269218  0.47202672  0.87143802    -0.62660
O526        O  0.45389244  0.47248347  0.87050994    -0.71070
O527        O  0.45340617  0.47219446  0.83173622    -0.70630
O528        O  0.52419944  0.47205821  0.83267642    -0.61880
O529        O  0.48896825  0.43662257  0.83253830    -0.74390
O530        O  0.48908909  0.50787365  0.83230474    -0.73170
Cu531      Cu  0.48827832  0.47234335  0.87225485     1.04560
Cu532      Cu  0.48887586  0.47221544  0.83078107     1.04330
C533        C  0.48920936  0.51838028  0.85206657     0.93130
C534        C  0.48884565  0.42623986  0.85235601     0.92270
C535        C  0.53441915  0.47179493  0.85252320     0.84420
C536        C  0.44264339  0.47218056  0.85131176     0.90690
N537        N  0.49363541  0.58229068  0.20383390    -0.27410
N538        N  0.49219400  0.57899650  0.18108460    -0.35270
C539        C  0.48958298  0.55624536  0.17661042     0.00930
C540        C  0.48933276  0.54432655  0.19754939     0.06960
C541        C  0.49196982  0.56135499  0.21464045    -0.06140
H542        H  0.48823799  0.54888479  0.15924850     0.07620
H543        H  0.49289913  0.55872869  0.23332977     0.08820
Cu544      Cu  0.49398413  0.60528996  0.15688423     0.44170
Cu545      Cu  0.49794405  0.61602990  0.21657772     0.41990
Cu546      Cu  0.49823878  0.66484037  0.17055261     0.43880
N547        N  0.49432151  0.63079678  0.13180870    -0.34800
N548        N  0.49571667  0.65340989  0.13595132    -0.29050
C549        C  0.49528984  0.66485803  0.11522542    -0.05150
C550        C  0.49353205  0.64828667  0.09750642     0.07060
C551        C  0.49300289  0.62706225  0.10883224     0.00860
H552        H  0.49636108  0.68360690  0.11321878     0.08510
H553        H  0.49181192  0.60994332  0.10091555     0.07590
N554        N  0.50064879  0.66872321  0.20687489    -0.36250
N555        N  0.50092954  0.65178420  0.22271262    -0.28430
C556        C  0.50227594  0.66136337  0.24413173    -0.03660
C557        C  0.50294305  0.68534939  0.24178266     0.04950
C558        C  0.50165047  0.68939088  0.21800602     0.03040
H559        H  0.50172574  0.65153008  0.26024590     0.08140
H560        H  0.50112509  0.70620629  0.20941389     0.06980
N561        N  0.49397993  0.79474992  0.41611236    -0.27410
N562        N  0.49287227  0.81750843  0.41940140    -0.35270
C563        C  0.49052752  0.82207814  0.44217426     0.00930
C564        C  0.49011317  0.80119741  0.45413884     0.06960
C565        C  0.49237266  0.78403210  0.43710964    -0.06140
H566        H  0.48944170  0.83946400  0.44950575     0.07620
H567        H  0.49301809  0.76534582  0.43977319     0.08820
Cu568      Cu  0.49463749  0.84165020  0.39314222     0.44170
Cu569      Cu  0.49756872  0.78188381  0.38224892     0.41990
Cu570      Cu  0.49825329  0.82833650  0.33370790     0.43880
N571        N  0.49490364  0.86687344  0.36787580    -0.34800
N572        N  0.49610974  0.86286428  0.34522331    -0.29050
C573        C  0.49559777  0.88363515  0.33389117    -0.05150
C574        C  0.49398387  0.90123054  0.35060385     0.07060
C575        C  0.49362473  0.88980185  0.37177446     0.00860
H576        H  0.49645729  0.88574871  0.31513172     0.08510
H577        H  0.49253768  0.89760610  0.38896093     0.07590
N578        N  0.49933705  0.79205088  0.32954502    -0.36250
N579        N  0.49936300  0.77599531  0.34628739    -0.28430
C580        C  0.49986942  0.75469469  0.33635320    -0.03660
C581        C  0.49978660  0.75738730  0.31238041     0.04950
C582        C  0.49970800  0.78123009  0.30869700     0.03040
H583        H  0.49978644  0.73840124  0.34591389     0.08140
H584        H  0.50009882  0.79016752  0.29206513     0.06980
O585        O  0.45679522  0.66923161  0.02573957    -0.73060
O586        O  0.52817774  0.67117717  0.02548739    -0.74040
O587        O  0.49269129  0.67020472  0.98983395    -0.62660
O588        O  0.49274582  0.67037302  0.06143862    -0.71070
O589        O  0.49300234  0.63166148  0.06016151    -0.70630
O590        O  0.49367675  0.63151003  0.99130787    -0.61880
O591        O  0.52752789  0.63245023  0.02614351    -0.74390
O592        O  0.45892799  0.63056043  0.02545846    -0.73170
Cu593      Cu  0.49250821  0.67183635  0.02561190     1.04560
Cu594      Cu  0.49329462  0.63043841  0.02575047     1.04330
C595        C  0.44682532  0.64918949  0.02564889     0.93130
C596        C  0.53887421  0.65154933  0.02595200     0.92270
C597        C  0.49348087  0.65036701  0.97950901     0.84420
C598        C  0.49303499  0.65057602  0.07187038     0.90690
N599        N  0.10422319  0.79478642  0.02493997    -0.27410
N600        N  0.10037902  0.81748069  0.02560948    -0.35270
C601        C  0.07749049  0.82157852  0.02597884     0.00930
C602        C  0.06594290  0.80048889  0.02554828     0.06960
C603        C  0.08341571  0.78364581  0.02488224    -0.06140
H604        H  0.06979834  0.83882238  0.02655889     0.07620
H605        H  0.08119476  0.76489800  0.02441059     0.08820
Cu606      Cu  0.12589179  0.84242040  0.02624980     0.44170
Cu607      Cu  0.13858837  0.78276439  0.02451022     0.41990
Cu608      Cu  0.18518024  0.83053053  0.03069666     0.43880
N609        N  0.15045763  0.86828027  0.02726941    -0.34800
N610        N  0.17304734  0.86461750  0.02905491    -0.29050
C611        C  0.18408143  0.88547945  0.02919747    -0.05150
C612        C  0.16726282  0.90282730  0.02744826     0.07060
C613        C  0.14629447  0.89118581  0.02628049     0.00860
H614        H  0.20272358  0.88780256  0.03054042     0.08510
H615        H  0.12911189  0.89881668  0.02485940     0.07590
N616        N  0.19066669  0.79469175  0.02877752    -0.36250
N617        N  0.17475331  0.77818900  0.02579421    -0.28430
C618        C  0.18564545  0.75745470  0.02431969    -0.03660
C619        C  0.20945689  0.76091371  0.02643933     0.04950
C620        C  0.21184732  0.78476290  0.02956802     0.03040
H621        H  0.17679787  0.74096912  0.02183901     0.08140
H622        H  0.22758677  0.79444890  0.03282008     0.06980
N623        N  0.31343994  0.58234001  0.02281598    -0.27410
N624        N  0.33593572  0.57805844  0.02467071    -0.35270
C625        C  0.33930673  0.55500186  0.02585011     0.00930
C626        C  0.31794398  0.54394468  0.02473059     0.06960
C627        C  0.30173516  0.56182658  0.02281425    -0.06140
H628        H  0.35623718  0.54682877  0.02730366     0.07620
H629        H  0.28303543  0.56010204  0.02138556     0.08820
Cu630      Cu  0.36151809  0.60338199  0.02542784     0.44170
Cu631      Cu  0.30198879  0.61661752  0.02082545     0.41990
Cu632      Cu  0.34866107  0.66354257  0.02719418     0.43880
N633        N  0.38704021  0.62877056  0.02591501    -0.34800
N634        N  0.38292503  0.65143769  0.02662886    -0.29050
C635        C  0.40353475  0.66291837  0.02660241    -0.05150
C636        C  0.42127980  0.64642079  0.02582834     0.07060
C637        C  0.41004797  0.62509430  0.02542882     0.00860
H638        H  0.40543324  0.68170213  0.02709142     0.08510
H639        H  0.41805686  0.60799855  0.02480949     0.07590
N640        N  0.31266832  0.66877006  0.02580494    -0.36250
N641        N  0.29662907  0.65243741  0.02268737    -0.28430
C642        C  0.27554742  0.66255424  0.02186897    -0.03660
C643        C  0.27814678  0.68636184  0.02515144     0.04950
C644        C  0.30197978  0.68960710  0.02734656     0.03040
H645        H  0.25972960  0.65302523  0.01853378     0.08140
H646        H  0.31096687  0.70599625  0.02996176     0.06980
N647        N  0.98984594  0.86331169  0.20562478    -0.27410
N648        N  0.98979811  0.86715025  0.18290643    -0.35270
C649        C  0.99078706  0.89006192  0.17876318     0.00930
C650        C  0.99148528  0.90163869  0.19984282     0.06960
C651        C  0.99083497  0.88417319  0.21673921    -0.06140
H652        H  0.99090013  0.89774548  0.16149180     0.07620
H653        H  0.99096388  0.88643921  0.23550004     0.08820
Cu654      Cu  0.98868213  0.84172425  0.15789012     0.44170
Cu655      Cu  0.98833207  0.82891762  0.21774511     0.41990
Cu656      Cu  0.98575844  0.78228796  0.16952799     0.43880
N657        N  0.98978700  0.81731033  0.13187731    -0.34800
N658        N  0.98879568  0.79459349  0.13542462    -0.29050
C659        C  0.99027352  0.78363903  0.11452678    -0.05150
C660        C  0.99233264  0.80063511  0.09730293     0.07060
C661        C  0.99191373  0.82163603  0.10905199     0.00860
H662        H  0.98976425  0.76491880  0.11207291     0.08510
H663        H  0.99298701  0.83894473  0.10154851     0.07590
N664        N  0.98446812  0.77671677  0.20554463    -0.36250
N665        N  0.98577476  0.79270912  0.22227661    -0.28430
C666        C  0.98473230  0.78187756  0.24311489    -0.03660
C667        C  0.98286082  0.75804138  0.23946705     0.04950
C668        C  0.98242611  0.75551973  0.21542504     0.03040
H669        H  0.98533083  0.79074893  0.25979295     0.08140
H670        H  0.98008655  0.73960875  0.20560010     0.06980
N671        N  0.98040467  0.58337912  0.34662936    -0.27410
N672        N  0.98259434  0.57953833  0.36924218    -0.35270
C673        C  0.98518111  0.55669776  0.37312464     0.00930
C674        C  0.98466188  0.54517825  0.35198653     0.06960
C675        C  0.98155793  0.56261379  0.33533416    -0.06140
H676        H  0.98708609  0.54899451  0.39028057     0.07620
H677        H  0.98001348  0.56037520  0.31663395     0.08820
Cu678      Cu  0.98206293  0.60490520  0.39446602     0.44170
Cu679      Cu  0.97622662  0.61766311  0.33486871     0.41990
Cu680      Cu  0.97894188  0.66450609  0.38282261     0.43880
N681        N  0.98283408  0.62941758  0.42052087    -0.34800
N682        N  0.98176706  0.65213560  0.41695100    -0.29050
C683        C  0.98267129  0.66310776  0.43787976    -0.05150
C684        C  0.98441627  0.64614438  0.45517485     0.07060
C685        C  0.98444603  0.62513064  0.44340792     0.00860
H686        H  0.98192716  0.68182389  0.44030877     0.08510
H687        H  0.98541554  0.60783327  0.45095216     0.07590
N688        N  0.97609860  0.67006637  0.34686998    -0.36250
N689        N  0.97476385  0.65391078  0.33029953    -0.28430
C690        C  0.97384204  0.66462857  0.30941047    -0.03660
C691        C  0.97453232  0.68856256  0.31282686     0.04950
C692        C  0.97619719  0.69128729  0.33679986     0.03040
H693        H  0.97332086  0.65559199  0.29281836     0.08140
H694        H  0.97863464  0.70735807  0.34634586     0.06980
O695        O  0.99408608  0.81753084  0.06006370    -0.73060
O696        O  0.99447023  0.81722884  0.99112504    -0.74040
O697        O  0.96001542  0.81753858  0.02542086    -0.62660
O698        O  0.02874486  0.81732509  0.02572491    -0.71070
O699        O  0.02994502  0.77860492  0.02567932    -0.70630
O700        O  0.95877918  0.77880589  0.02581192    -0.61880
O701        O  0.99420482  0.77849515  0.99005771    -0.74390
O702        O  0.99404334  0.77879888  0.06134913    -0.73170
Cu703      Cu  0.99437812  0.81855697  0.02557928     1.04560
Cu704      Cu  0.99429407  0.77712198  0.02572758     1.04330
C705        C  0.99365814  0.79859665  0.07173953     0.93130
C706        C  0.99414534  0.79822902  0.97954516     0.92270
C707        C  0.94839493  0.79860118  0.02566758     0.84420
C708        C  0.04037744  0.79837718  0.02566339     0.90690
N709        N  0.16405596  0.58306498  0.52610061    -0.27410
N710        N  0.14137610  0.57972554  0.52490289    -0.35270
C711        C  0.13673084  0.55687190  0.52505946     0.00930
C712        C  0.15746120  0.54483223  0.52639673     0.06960
C713        C  0.17464953  0.56195407  0.52699151    -0.06140
H714        H  0.11937557  0.54955499  0.52434974     0.07620
H715        H  0.19326078  0.55928922  0.52813024     0.08820
Cu716      Cu  0.11729935  0.60597500  0.52386818     0.44170
Cu717      Cu  0.17675355  0.61727424  0.52681834     0.41990
Cu718      Cu  0.12975748  0.66512701  0.53081999     0.43880
N719        N  0.09178504  0.63079802  0.52525784    -0.34800
N720        N  0.09546808  0.65333078  0.52816889    -0.29050
C721        C  0.07458822  0.66433467  0.52889827    -0.05150
C722        C  0.05726742  0.64752412  0.52638824     0.07060
C723        C  0.06896044  0.62664036  0.52413123     0.00860
H724        H  0.07221434  0.68291092  0.53135615     0.08510
H725        H  0.06140687  0.60945347  0.52208130     0.07590
N726        N  0.16586336  0.66988729  0.52965851    -0.36250
N727        N  0.18206784  0.65347445  0.52767366    -0.28430
C728        C  0.20304765  0.66386020  0.52641211    -0.03660
C729        C  0.20009078  0.68785791  0.52749996     0.04950
C730        C  0.17627635  0.69091979  0.52991214     0.03040
H731        H  0.21935519  0.65455888  0.52466170     0.08140
H732        H  0.16697559  0.70711150  0.53227874     0.06980
N733        N  0.37866017  0.79330679  0.52520362    -0.27410
N734        N  0.38190592  0.81603671  0.52652016    -0.35270
C735        C  0.40463592  0.82080553  0.52685832     0.00930
C736        C  0.41670265  0.80006817  0.52575892     0.06960
C737        C  0.39974331  0.78274808  0.52473217    -0.06140
H738        H  0.41183501  0.83823801  0.52785243     0.07620
H739        H  0.40249448  0.76409253  0.52369032     0.08820
Cu740      Cu  0.35573048  0.83987741  0.52774639     0.44170
Cu741      Cu  0.34456644  0.78077282  0.52441367     0.41990
Cu742      Cu  0.29637225  0.82768536  0.52854273     0.43880
N743        N  0.33136109  0.86557669  0.52797310    -0.34800
N744        N  0.30867847  0.86209644  0.52823724    -0.29050
C745        C  0.29799452  0.88318755  0.52796907    -0.05150
C746        C  0.31518863  0.90034189  0.52748364     0.07060
C747        C  0.33594625  0.88839526  0.52752321     0.00860
H748        H  0.27934239  0.88581989  0.52805003     0.08510
H749        H  0.35330185  0.89573756  0.52717347     0.07590
N750        N  0.29199752  0.79130105  0.52767115    -0.36250
N751        N  0.30858961  0.77526927  0.52572992    -0.28430
C752        C  0.29866931  0.75400360  0.52510870    -0.03660
C753        C  0.27476242  0.75649369  0.52716649     0.04950
C754        C  0.27125374  0.78041211  0.52851945     0.03040
H755        H  0.30836890  0.73806817  0.52262025     0.08140
H756        H  0.25470846  0.78932160  0.53004696     0.06980
O757        O  0.98585502  0.62928155  0.49246371    -0.73060
O758        O  0.98623974  0.62960314  0.56145651    -0.74040
O759        O  0.95181659  0.62864676  0.52717479    -0.62660
O760        O  0.02040801  0.63016851  0.52669259    -0.71070
O761        O  0.02096635  0.66890566  0.52692635    -0.70630
O762        O  0.94990832  0.66736431  0.52708652    -0.61880
O763        O  0.98517797  0.66832472  0.56256534    -0.74390
O764        O  0.98516157  0.66800312  0.49122541    -0.73170
Cu765      Cu  0.98614693  0.62827644  0.52695739     1.04560
Cu766      Cu  0.98531958  0.66970795  0.52693084     1.04330
C767        C  0.98524888  0.64821045  0.48079114     0.93130
C768        C  0.98544105  0.64858435  0.57305497     0.92270
C769        C  0.93989033  0.64739570  0.52724864     0.84420
C770        C  0.03170979  0.64929972  0.52673035     0.90690
O771        O  0.48850039  0.77959013  0.56143263    -0.73060
O772        O  0.48870528  0.77956023  0.49017837    -0.74040
O773        O  0.52373187  0.77993128  0.52579698    -0.62660
O774        O  0.45296037  0.77898226  0.52566734    -0.71070
O775        O  0.45349665  0.81773592  0.52574909    -0.70630
O776        O  0.52221485  0.81867520  0.52605046    -0.61880
O777        O  0.48812109  0.81829606  0.49133051    -0.74390
O778        O  0.48784472  0.81832472  0.56038729    -0.73170
Cu779      Cu  0.48842792  0.77798753  0.52577223     1.04560
Cu780      Cu  0.48784638  0.81944143  0.52586742     1.04330
C781        C  0.48850877  0.79933245  0.57195594     0.93130
C782        C  0.48880174  0.79931923  0.47971843     0.92270
C783        C  0.53393543  0.79977754  0.52599539     0.84420
C784        C  0.44222858  0.79856733  0.52569145     0.90690
N785        N  0.49282378  0.15130565  0.41658020    -0.27410
N786        N  0.49275348  0.12854706  0.42004927    -0.35270
C787        C  0.49073482  0.12407713  0.44286290     0.00930
C788        C  0.48947839  0.14501249  0.45468873     0.06960
C789        C  0.49089355  0.16212224  0.43751625    -0.06140
H790        H  0.49035486  0.10671603  0.45031418     0.07620
H791        H  0.49065179  0.18083969  0.44002930     0.08820
Cu792      Cu  0.49510613  0.10418545  0.39400614     0.44170
Cu793      Cu  0.49556546  0.16399012  0.38256888     0.41990
Cu794      Cu  0.49491987  0.11731037  0.33440441     0.43880
N795        N  0.49487891  0.07886622  0.36880298    -0.34800
N796        N  0.49443016  0.08290332  0.34612956    -0.29050
C797        C  0.49382865  0.06216926  0.33478248    -0.05150
C798        C  0.49387889  0.04454428  0.35149030     0.07060
C799        C  0.49457915  0.05589703  0.37270001     0.00860
H800        H  0.49339404  0.06011125  0.31600140     0.08510
H801        H  0.49474222  0.04802624  0.38988546     0.07590
N802        N  0.49762164  0.15336969  0.32996253    -0.36250
N803        N  0.49814849  0.16951192  0.34659334    -0.28430
C804        C  0.50019266  0.19062616  0.33652195    -0.03660
C805        C  0.50123032  0.18774285  0.31255074     0.04950
C806        C  0.49923374  0.16393382  0.30905408     0.03040
H807        H  0.50070709  0.20696669  0.34599598     0.08140
H808        H  0.49810803  0.15484519  0.29255903     0.06980
N809        N  0.49334275  0.36322068  0.20349257    -0.27410
N810        N  0.49231887  0.36649683  0.18072557    -0.35270
C811        C  0.48958286  0.38923077  0.17621477     0.00930
C812        C  0.48881339  0.40111844  0.19717054     0.06960
C813        C  0.49129956  0.38411781  0.21428736    -0.06140
H814        H  0.48851313  0.39659870  0.15883971     0.07620
H815        H  0.49183784  0.38673206  0.23299522     0.08820
Cu816      Cu  0.49465291  0.34005913  0.15672212     0.44170
Cu817      Cu  0.49735016  0.32954629  0.21628779     0.41990
Cu818      Cu  0.49707727  0.28026089  0.17084949     0.43880
N819        N  0.49499793  0.31429187  0.13191270    -0.34800
N820        N  0.49563626  0.29166580  0.13619215    -0.29050
C821        C  0.49522201  0.28011667  0.11551898    -0.05150
C822        C  0.49426551  0.29663519  0.09770116     0.07060
C823        C  0.49418663  0.31792707  0.10890558     0.00860
H824        H  0.49566069  0.26132915  0.11362319     0.08510
H825        H  0.49354776  0.33502739  0.10089035     0.07590
N826        N  0.49874745  0.27670922  0.20723500    -0.36250
N827        N  0.49916928  0.29386346  0.22281936    -0.28430
C828        C  0.50027980  0.28463129  0.24437226    -0.03660
C829        C  0.50018790  0.26057714  0.24246960     0.04950
C830        C  0.49949690  0.25621154  0.21868853     0.03040
H831        H  0.50150180  0.29489051  0.26014968     0.08140
H832        H  0.49925566  0.23928386  0.21029895     0.06980
O833        O  0.52770896  0.97265230  0.36683190    -0.73060
O834        O  0.45921461  0.97293287  0.36893550    -0.74040
O835        O  0.49345387  0.93842050  0.36747791    -0.62660
O836        O  0.49367805  0.00718054  0.36799153    -0.71070
O837        O  0.49282814  0.00875633  0.32926287    -0.70630
O838        O  0.49296095  0.93735939  0.32873554    -0.61880
O839        O  0.45703781  0.97321077  0.33024070    -0.74390
O840        O  0.52848936  0.97320407  0.32809250    -0.73170
Cu841      Cu  0.49353489  0.97278235  0.36891397     1.04560
Cu842      Cu  0.49274196  0.97312356  0.32748580     1.04330
C843        C  0.53913245  0.97293053  0.34776539     0.93130
C844        C  0.44710271  0.97321005  0.35032708     0.92270
C845        C  0.49340175  0.92683672  0.34848009     0.84420
C846        C  0.49340581  0.01899713  0.34914320     0.90690
O847        O  0.52924939  0.27372272  0.02596935    -0.73060
O848        O  0.45775988  0.27535003  0.02582194    -0.74040
O849        O  0.49377834  0.27439900  0.99013746    -0.62660
O850        O  0.49354803  0.27441287  0.06171833    -0.71070
O851        O  0.49386537  0.31312034  0.06032768    -0.70630
O852        O  0.49425821  0.31310757  0.99154481    -0.61880
O853        O  0.45973265  0.31403010  0.02575143    -0.74390
O854        O  0.52821217  0.31243724  0.02617620    -0.73170
Cu855      Cu  0.49350806  0.27286678  0.02590963     1.04560
Cu856      Cu  0.49403118  0.31426751  0.02594191     1.04330
C857        C  0.53976019  0.29345622  0.02617374     0.93130
C858        C  0.44771446  0.29536961  0.02575214     0.92270
C859        C  0.49421869  0.29422590  0.97978468     0.84420
C860        C  0.49383637  0.29424401  0.07208617     0.90690
N861        N  0.16329845  0.36312283  0.52448328    -0.27410
N862        N  0.14058908  0.36642021  0.52473271    -0.35270
C863        C  0.13593474  0.38927916  0.52540334     0.00930
C864        C  0.15672723  0.40129885  0.52561291     0.06960
C865        C  0.17391907  0.38419787  0.52500149    -0.06140
H866        H  0.11856774  0.39660836  0.52578037     0.07620
H867        H  0.19256508  0.38684853  0.52500073     0.08820
Cu868      Cu  0.11681896  0.33986199  0.52460105     0.44170
Cu869      Cu  0.17603733  0.32903951  0.52390621     0.41990
Cu870      Cu  0.13019912  0.28010667  0.52771292     0.43880
N871        N  0.09174621  0.31456690  0.52542517    -0.34800
N872        N  0.09564224  0.29190384  0.52670933    -0.29050
C873        C  0.07479447  0.28077571  0.52710986    -0.05150
C874        C  0.05730640  0.29763063  0.52605212     0.07060
C875        C  0.06888590  0.31865240  0.52500514     0.00860
H876        H  0.07255291  0.26205504  0.52818394     0.08510
H877        H  0.06122685  0.33589601  0.52408151     0.07590
N878        N  0.16658851  0.27620183  0.52708882    -0.36250
N879        N  0.18225991  0.29311774  0.52519093    -0.28430
C880        C  0.20366056  0.28358070  0.52463055    -0.03660
C881        C  0.20166827  0.25955984  0.52670989     0.04950
C882        C  0.17786244  0.25560713  0.52799798     0.03040
H883        H  0.21933228  0.29363364  0.52217844     0.08140
H884        H  0.16929240  0.23885961  0.52952639     0.06980
N885        N  0.37709971  0.15205233  0.52604804    -0.27410
N886        N  0.38068600  0.12932041  0.52580572    -0.35270
C887        C  0.40348076  0.12485070  0.52557065     0.00930
C888        C  0.41529855  0.14574507  0.52568439     0.06960
C889        C  0.39807247  0.16288065  0.52598614    -0.06140
H890        H  0.41090649  0.10747937  0.52549278     0.07620
H891        H  0.40057799  0.18159533  0.52627214     0.08820
Cu892      Cu  0.35508693  0.10479304  0.52630716     0.44170
Cu893      Cu  0.34272500  0.16423721  0.52670927     0.41990
Cu894      Cu  0.29601851  0.11597250  0.53120637     0.43880
N895        N  0.33124792  0.07856844  0.52738478    -0.34800
N896        N  0.30861171  0.08180241  0.52932134    -0.29050
C897        C  0.29810774  0.06065041  0.52944202    -0.05150
C898        C  0.31535666  0.04366416  0.52751803     0.07060
C899        C  0.33599240  0.05578114  0.52628575     0.00860
H900        H  0.27953543  0.05786385  0.53088893     0.08510
H901        H  0.35334568  0.04857543  0.52473104     0.07590
N902        N  0.29047634  0.15208009  0.52979733    -0.36250
N903        N  0.30645197  0.16868671  0.52765230    -0.28430
C904        C  0.29558026  0.18947102  0.52630876    -0.03660
C905        C  0.27171835  0.18598169  0.52752491     0.04950
C906        C  0.26925948  0.16204435  0.53008780     0.03040
H907        H  0.30446329  0.20601622  0.52441172     0.08140
H908        H  0.25336652  0.15235079  0.53258588     0.06980
O909        O  0.98605364  0.31589531  0.56064101    -0.73060
O910        O  0.98598649  0.31602434  0.49172867    -0.74040
O911        O  0.95175804  0.31683025  0.52621663    -0.62660
O912        O  0.02040778  0.31500733  0.52612713    -0.71070
O913        O  0.02089187  0.27628087  0.52627669    -0.70630
O914        O  0.94975214  0.27812419  0.52585322    -0.61880
O915        O  0.98512131  0.27731274  0.49037441    -0.74390
O916        O  0.98479400  0.27719185  0.56183261    -0.73170
Cu917      Cu  0.98612726  0.31707447  0.52618928     1.04560
Cu918      Cu  0.98516249  0.27565960  0.52609258     1.04330
C919        C  0.98511398  0.29697207  0.57229065     0.93130
C920        C  0.98523847  0.29713445  0.48000203     0.92270
C921        C  0.93977694  0.29812243  0.52593395     0.84420
C922        C  0.03169707  0.29585004  0.52618871     0.90690
O923        O  0.29501131  0.97193535  0.56309696    -0.73060
O924        O  0.29463364  0.97209509  0.49101821    -0.74040
O925        O  0.29403099  0.93656309  0.52708738    -0.62660
O926        O  0.29422818  0.00748206  0.52729689    -0.71070
O927        O  0.33286292  0.00658363  0.52684902    -0.70630
O928        O  0.33266535  0.93739833  0.52688680    -0.61880
O929        O  0.33320930  0.97196766  0.49256917    -0.74390
O930        O  0.33357470  0.97198881  0.56106646    -0.73170
Cu931      Cu  0.29289711  0.97202835  0.52710879     1.04560
Cu932      Cu  0.33419678  0.97198065  0.52682030     1.04330
C933        C  0.31499928  0.97193300  0.57314510     0.93130
C934        C  0.31450668  0.97203575  0.48070466     0.92270
C935        C  0.31360965  0.92594466  0.52710487     0.84420
C936        C  0.31382030  0.01806553  0.52720087     0.90690
N937        N  0.10315848  0.15376742  0.02674227    -0.27410
N938        N  0.09941586  0.13104864  0.02662319    -0.35270
C939        C  0.07655334  0.12687212  0.02658776     0.00930
C940        C  0.06493438  0.14792902  0.02668109     0.06960
C941        C  0.08231580  0.16484244  0.02677503    -0.06140
H942        H  0.06893089  0.10959463  0.02648744     0.07620
H943        H  0.08001619  0.18358860  0.02684047     0.08820
Cu944      Cu  0.12492659  0.10609800  0.02654359     0.44170
Cu945      Cu  0.13737794  0.16599278  0.02674899     0.41990
Cu946      Cu  0.18416119  0.11803670  0.02799864     0.43880
N947        N  0.14951391  0.08023862  0.02688211    -0.34800
N948        N  0.17213935  0.08399395  0.02756008    -0.29050
C949        C  0.18328659  0.06320407  0.02763503    -0.05150
C950        C  0.16650373  0.04579005  0.02697025     0.07060
C951        C  0.14542729  0.05730537  0.02651340     0.00860
H952        H  0.20198469  0.06098139  0.02813719     0.08510
H953        H  0.12824390  0.04957806  0.02598020     0.07590
N954        N  0.18952151  0.15381220  0.02664320    -0.36250
N955        N  0.17350131  0.17051849  0.02620229    -0.28430
C956        C  0.18434175  0.19131561  0.02534957    -0.03660
C957        C  0.20810927  0.18750548  0.02491187     0.04950
C958        C  0.21074180  0.16360553  0.02604166     0.03040
H959        H  0.17554868  0.20802343  0.02507533     0.08140
H960        H  0.22686262  0.15391755  0.02708257     0.06980
N961        N  0.38384990  0.29310491  0.02565393    -0.27410
N962        N  0.38793246  0.31578763  0.02557571    -0.35270
C963        C  0.41093749  0.31945880  0.02559051     0.00930
C964        C  0.42217986  0.29811991  0.02568120     0.06960
C965        C  0.40445928  0.28161680  0.02572327    -0.06140
H966        H  0.41893929  0.33656162  0.02553825     0.07620
H967        H  0.40636731  0.26282624  0.02581188     0.08820
Cu968      Cu  0.36243354  0.34126622  0.02540581     0.44170
Cu969      Cu  0.34969764  0.28089719  0.02571957     0.41990
Cu970      Cu  0.30283833  0.32801558  0.02434729     0.43880
N971        N  0.33681620  0.36662289  0.02499065    -0.34800
N972        N  0.31427158  0.36225774  0.02450499    -0.29050
C973        C  0.30247873  0.38271419  0.02438881    -0.05150
C974        C  0.31867142  0.40066963  0.02481954     0.07060
C975        C  0.34013189  0.38971885  0.02518841     0.00860
H976        H  0.28371703  0.38434072  0.02404579     0.08510
H977        H  0.35706845  0.39798323  0.02558407     0.07590
N978        N  0.29757265  0.29224783  0.02567383    -0.36250
N979        N  0.31374684  0.27571498  0.02615981    -0.28430
C980        C  0.30314442  0.25479466  0.02698733    -0.03660
C981        C  0.27934078  0.25836075  0.02736476     0.04950
C982        C  0.27645615  0.28223779  0.02621494     0.03040
H983        H  0.31211919  0.23818515  0.02732446     0.08140
H984        H  0.26023695  0.29175717  0.02515658     0.06980
N985        N  0.10188238  0.97239010  0.20572521    -0.27410
N986        N  0.09826152  0.97410420  0.18304621    -0.35270
C987        C  0.07540766  0.97483292  0.17880479     0.00930
C988        C  0.06371434  0.97357204  0.19981014     0.06960
C989        C  0.08101764  0.97204156  0.21672721    -0.06140
H990        H  0.06784329  0.97612513  0.16153975     0.07620
H991        H  0.07865030  0.97067614  0.23542525     0.08820
Cu992      Cu  0.12415358  0.97523820  0.15848008     0.44170
Cu993      Cu  0.13598888  0.97096963  0.21800759     0.41990
Cu994      Cu  0.18373409  0.97628819  0.17136323     0.43880
N995        N  0.14921390  0.97555957  0.13304794    -0.34800
N996        N  0.17182891  0.97594920  0.13700829    -0.29050
C997        C  0.18308710  0.97571392  0.11622876    -0.05150
C998        C  0.16640260  0.97512426  0.09864715     0.07060
C999        C  0.14528022  0.97506701  0.11007050     0.00860
H1000       H  0.20180327  0.97587117  0.11411193     0.08510
H1001       H  0.12813768  0.97461108  0.10224201     0.07590
N1002       N  0.18832628  0.97510788  0.20751137    -0.36250
N1003       N  0.17186576  0.97257595  0.22357311    -0.28430
C1004       C  0.18189919  0.97188354  0.24477758    -0.03660
C1005       C  0.20572392  0.97457060  0.24215086     0.04950
C1006       C  0.20909292  0.97632115  0.21825907     0.03040
H1007       H  0.17234689  0.96899017  0.26073710     0.08140
H1008       H  0.22553375  0.97839767  0.20926517     0.06980
N1009       N  0.38333797  0.97568821  0.34815171    -0.27410
N1010       N  0.38730309  0.97381375  0.37078089    -0.35270
C1011       C  0.41028547  0.97254330  0.37446497     0.00930
C1012       C  0.42158609  0.97359982  0.35315583     0.06960
C1013       C  0.40394958  0.97560111  0.33669078    -0.06140
H1014       H  0.41823104  0.97100747  0.39153490     0.07620
H1015       H  0.40591818  0.97698300  0.31794673     0.08820
Cu1016     Cu  0.36142793  0.97299618  0.39590717     0.44170
Cu1017     Cu  0.34930402  0.97780429  0.33600190     0.41990
Cu1018     Cu  0.30149963  0.97244963  0.38194801     0.43880
N1019       N  0.33545688  0.97236724  0.42094170    -0.34800
N1020       N  0.31290710  0.97214689  0.41649390    -0.29050
C1021       C  0.30111946  0.97196506  0.43701584    -0.05150
C1022       C  0.31731272  0.97207170  0.45505839     0.07060
C1023       C  0.33874721  0.97231560  0.44405840     0.00860
H1024       H  0.28235575  0.97183307  0.43864378     0.08510
H1025       H  0.35569154  0.97252060  0.45232012     0.07590
N1026       N  0.29699647  0.97400700  0.34579909    -0.36250
N1027       N  0.31359255  0.97655577  0.32990050    -0.28430
C1028       C  0.30377592  0.97744051  0.30860197    -0.03660
C1029       C  0.27991701  0.97488093  0.31100158     0.04950
C1030       C  0.27632300  0.97298510  0.33485887     0.03040
H1031       H  0.31349873  0.98034191  0.29274709     0.08140
H1032       H  0.25979429  0.97091790  0.34368967     0.06980
N1033       N  0.99007335  0.15305360  0.13640777    -0.27410
N1034       N  0.98954812  0.13035401  0.13257227    -0.35270
C1035       C  0.99056253  0.12621610  0.10963620     0.00930
C1036       C  0.99177400  0.14729259  0.09808972     0.06960
C1037       C  0.99138397  0.16416265  0.11557073    -0.06140
H1038       H  0.99040491  0.10896594  0.10191696     0.07620
H1039       H  0.99198364  0.18290718  0.11334006     0.08820
Cu1040     Cu  0.98793786  0.10546517  0.15816864     0.44170
Cu1041     Cu  0.98880396  0.16523243  0.17072452     0.41990
Cu1042     Cu  0.98597677  0.11756226  0.21784271     0.43880
N1043       N  0.98871702  0.07963628  0.18285998    -0.34800
N1044       N  0.98817193  0.08332161  0.20559312    -0.29050
C1045       C  0.98927420  0.06243908  0.21662799    -0.05150
C1046       C  0.99060689  0.04507442  0.19967731     0.07060
C1047       C  0.99018142  0.05674906  0.17862360     0.00860
H1048       H  0.98903181  0.06009288  0.23537699     0.08510
H1049       H  0.99084514  0.04914777  0.16132509     0.07590
N1050       N  0.98408697  0.15365367  0.22299645    -0.36250
N1051       N  0.98566519  0.17016088  0.20677022    -0.28430
C1052       C  0.98420379  0.19117465  0.21719656    -0.03660
C1053       C  0.98119661  0.18778281  0.24087253     0.04950
C1054       C  0.98131475  0.16388530  0.24397776     0.03040
H1055       H  0.98499299  0.20773316  0.20813970     0.08140
H1056       H  0.97982808  0.15457107  0.26034829     0.06980
N1057       N  0.97988681  0.29390928  0.41624374    -0.27410
N1058       N  0.98265835  0.31647067  0.41995076    -0.35270
C1059       C  0.98530529  0.32040738  0.44279661     0.00930
C1060       C  0.98422992  0.29934846  0.45440718     0.06960
C1061       C  0.98074580  0.28270663  0.43705712    -0.06140
H1062       H  0.98760038  0.33753668  0.45043963     0.07620
H1063       H  0.97869847  0.26407779  0.43938702     0.08820
Cu1064     Cu  0.98260620  0.34150297  0.39436374     0.44170
Cu1065     Cu  0.97530591  0.28190617  0.38213981     0.41990
Cu1066     Cu  0.97745855  0.32937220  0.33490126     0.43880
N1067       N  0.98309977  0.36727011  0.36951967    -0.34800
N1068       N  0.98115488  0.36353037  0.34687330    -0.29050
C1069       C  0.98200292  0.38433437  0.33567839    -0.05150
C1070       C  0.98462303  0.40173288  0.35242298     0.07060
C1071       C  0.98521818  0.39014876  0.37353680     0.00860
H1072       H  0.98058286  0.38661446  0.31697415     0.08510
H1073       H  0.98686133  0.39782386  0.39073512     0.07590
N1074       N  0.97534849  0.29335093  0.32967959    -0.36250
N1075       N  0.97412972  0.27689388  0.34598331    -0.28430
C1076       C  0.97376740  0.25586513  0.33547294    -0.03660
C1077       C  0.97514555  0.25920737  0.31163414     0.04950
C1078       C  0.97600322  0.28308529  0.30855841     0.03040
H1079       H  0.97348552  0.23931829  0.34458064     0.08140
H1080       H  0.97741280  0.29236441  0.29216109     0.06980
O1081       O  0.99218689  0.93768168  0.22169896    -0.73060
O1082       O  0.99178213  0.00903734  0.22153446    -0.74040
O1083       O  0.95657412  0.97314317  0.22149629    -0.62660
O1084       O  0.02771854  0.97344479  0.22162919    -0.71070
O1085       O  0.02660718  0.97353576  0.18287804    -0.70630
O1086       O  0.95797318  0.97320446  0.18274741    -0.61880
O1087       O  0.99201748  0.00781945  0.18278627    -0.74390
O1088       O  0.99239360  0.93889018  0.18295033    -0.73170
Cu1089     Cu  0.99210700  0.97334063  0.22315164     1.04560
Cu1090     Cu  0.99228495  0.97335646  0.18169619     1.04330
C1091       C  0.99213195  0.92723873  0.20191541     0.93130
C1092       C  0.99159202  0.01947624  0.20174261     0.92270
C1093       C  0.94627358  0.97312636  0.20165536     0.84420
C1094       C  0.03817924  0.97350630  0.20185331     0.90690
O1095       O  0.15040904  0.93994595  0.02690265    -0.73060
O1096       O  0.14999570  0.00854859  0.02677539    -0.74040
O1097       O  0.15055635  0.97423687  0.99243139    -0.62660
O1098       O  0.14996693  0.97437357  0.06125517    -0.71070
O1099       O  0.18857602  0.97470432  0.06284410    -0.70630
O1100       O  0.18918391  0.97439750  0.99147072    -0.61880
O1101       O  0.18861867  0.01005364  0.02706848    -0.74390
O1102       O  0.18903634  0.93883232  0.02740503    -0.73170
Cu1103     Cu  0.14910247  0.97425052  0.02682662     1.04560
Cu1104     Cu  0.19043015  0.97448246  0.02719682     1.04330
C1105       C  0.16932998  0.92837007  0.02724269     0.93130
C1106       C  0.16879674  0.02030006  0.02692872     0.92270
C1107       C  0.16952742  0.97442022  0.98090238     0.84420
C1108       C  0.16874524  0.97469047  0.07308333     0.90690
O1109       O  0.99296926  0.16927143  0.06214179    -0.73060
O1110       O  0.99331288  0.16952004  0.99075154    -0.74040
O1111       O  0.95767921  0.16904334  0.02635768    -0.62660
O1112       O  0.02885977  0.16966434  0.02659898    -0.71070
O1113       O  0.02788001  0.13093480  0.02655278    -0.70630
O1114       O  0.95926801  0.13032576  0.02606615    -0.61880
O1115       O  0.99375185  0.13079280  0.99186626    -0.74390
O1116       O  0.99322157  0.13054773  0.06077819    -0.73170
Cu1117     Cu  0.99322952  0.17094157  0.02646538     1.04560
Cu1118     Cu  0.99357823  0.12951207  0.02631215     1.04330
C1119       C  0.99278835  0.14945353  0.07250409     0.93130
C1120       C  0.99339687  0.14976538  0.98025587     0.92270
C1121       C  0.94747280  0.14915983  0.02617851     0.84420
C1122       C  0.03939052  0.14993902  0.02661761     0.90690
N1123       N  0.16376639  0.47358026  0.41679636    -0.27410
N1124       N  0.14106111  0.47282494  0.42006551    -0.35270
C1125       C  0.13637692  0.47268848  0.44293842     0.00930
C1126       C  0.15713518  0.47335309  0.45501021     0.06960
C1127       C  0.17434741  0.47389519  0.43791514    -0.06140
H1128       H  0.11900595  0.47210004  0.45024670     0.07620
H1129       H  0.19297989  0.47446052  0.44060055     0.08820
Cu1130     Cu  0.11726386  0.47198630  0.39351070     0.44170
Cu1131     Cu  0.17658303  0.47387507  0.38269595     0.41990
Cu1132     Cu  0.13075847  0.47003915  0.33375382     0.43880
N1133       N  0.09220661  0.47183019  0.36815212    -0.34800
N1134       N  0.09617580  0.47110418  0.34546432    -0.29050
C1135       C  0.07537873  0.47144400  0.33423688    -0.05150
C1136       C  0.05783691  0.47244789  0.35104614     0.07060
C1137       C  0.06933570  0.47264265  0.37215532     0.00860
H1138       H  0.07320740  0.47100164  0.31547131     0.08510
H1139       H  0.06161520  0.47334178  0.38939171     0.07590
N1140       N  0.16714317  0.47054372  0.32983349    -0.36250
N1141       N  0.18283475  0.47243477  0.34674039    -0.28430
C1142       C  0.20422169  0.47303180  0.33715644    -0.03660
C1143       C  0.20219289  0.47100749  0.31311077     0.04950
C1144       C  0.17838096  0.46967584  0.30920749     0.03040
H1145       H  0.21990049  0.47554018  0.34718824     0.08140
H1146       H  0.16977409  0.46821756  0.29246293     0.07940
N1147       N  0.37731144  0.47330284  0.20498190    -0.27410
N1148       N  0.38081123  0.47388384  0.18223312    -0.35270
C1149       C  0.40358488  0.47400925  0.17765446     0.00930
C1150       C  0.41548092  0.47348515  0.19850142     0.06960
C1151       C  0.39832872  0.47305667  0.21572058    -0.06140
H1152       H  0.41093627  0.47429354  0.16024433     0.07620
H1153       H  0.40091503  0.47245185  0.23442720     0.08820
Cu1154     Cu  0.35510685  0.47382782  0.15785758     0.44170
Cu1155     Cu  0.34296076  0.47254727  0.21725648     0.41990
Cu1156     Cu  0.29612846  0.46824529  0.16899507     0.43880
N1157       N  0.33134537  0.47251039  0.13161460    -0.34800
N1158       N  0.30873066  0.47028461  0.13478823    -0.29050
C1159       C  0.29831550  0.46991121  0.11357719    -0.05150
C1160       C  0.31561348  0.47195304  0.09663685     0.07060
C1161       C  0.33617088  0.47353268  0.10883502     0.00860
H1162       H  0.27978028  0.46817062  0.11071766     0.08510
H1163       H  0.35353519  0.47523803  0.10169131     0.07590
N1164       N  0.29067795  0.46940465  0.20517886    -0.36250
N1165       N  0.30668985  0.47148244  0.22177061    -0.28430
C1166       C  0.29587184  0.47259474  0.24261134    -0.03660
C1167       C  0.27200267  0.47128163  0.23919173     0.04950
C1168       C  0.26949288  0.46892247  0.21521636     0.03040
H1169       H  0.30480046  0.47437667  0.25915426     0.08140
H1170       H  0.25359227  0.46641033  0.20553917     0.06980
O1171       O  0.98583371  0.50912418  0.32999919    -0.73060
O1172       O  0.98544800  0.43765925  0.33032436    -0.74040
O1173       O  0.95041590  0.47368658  0.33075906    -0.62660
O1174       O  0.02156779  0.47302320  0.32945499    -0.71070
O1175       O  0.02082290  0.47329082  0.36819898    -0.70630
O1176       O  0.95215099  0.47365759  0.36950124    -0.61880
O1177       O  0.98628257  0.43906161  0.36905606    -0.74390
O1178       O  0.98651453  0.50792530  0.36873521    -0.73170
Cu1179     Cu  0.98585121  0.47337115  0.32856419     1.04560
Cu1180     Cu  0.98651287  0.47349775  0.37000601     1.04330
C1181       C  0.98582522  0.51957896  0.34979410     0.93130
C1182       C  0.98555757  0.42731590  0.35017403     0.92270
C1183       C  0.94029992  0.47377674  0.35069742     0.84420
C1184       C  0.03224054  0.47296769  0.34910915     0.90690
O1185       O  0.33387491  0.50653280  0.02499126    -0.73060
O1186       O  0.33426925  0.43820551  0.02501451    -0.74040
O1187       O  0.33343287  0.47231318  0.99036045    -0.62660
O1188       O  0.33332634  0.47237593  0.05962561    -0.71070
O1189       O  0.29468555  0.47197252  0.06032372    -0.70630
O1190       O  0.29479451  0.47228750  0.98942722    -0.61880
O1191       O  0.29569467  0.43625004  0.02473602    -0.74390
O1192       O  0.29528613  0.50813115  0.02488263    -0.73170
Cu1193     Cu  0.33485276  0.47237177  0.02500077     1.04560
Cu1194     Cu  0.29353772  0.47216297  0.02485352     1.04330
C1195       C  0.31516875  0.51838183  0.02488467     0.93130
C1196       C  0.31568141  0.42619220  0.02485543     0.92270
C1197       C  0.31439386  0.47226443  0.97885798     0.84420
C1198       C  0.31421928  0.47209179  0.07101471     0.90690
O1199       O  0.17840591  0.47253177  0.56254809    -0.73060
O1200       O  0.17854501  0.47327763  0.49121526    -0.74040
O1201       O  0.17874644  0.50855095  0.52713036    -0.62660
O1202       O  0.17828533  0.43734473  0.52642678    -0.71070
O1203       O  0.13966132  0.43856479  0.52647294    -0.70630
O1204       O  0.14011921  0.50770235  0.52695987    -0.61880
O1205       O  0.13991694  0.47335578  0.49221796    -0.74390
O1206       O  0.13979135  0.47279906  0.56137836    -0.73170
Cu1207     Cu  0.18001392  0.47292808  0.52686020     1.04560
Cu1208     Cu  0.13869640  0.47313246  0.52678319     1.04330
C1209       C  0.15869944  0.47243515  0.57303197     0.93130
C1210       C  0.15889028  0.47335794  0.48065853     0.92270
C1211       C  0.15913562  0.51918477  0.52693059     0.84420
C1212       C  0.15857502  0.42691060  0.52623054     0.90690
O1213       O  0.48628454  0.12754661  0.56074868    -0.73060
O1214       O  0.48722058  0.12791095  0.49180244    -0.74040
O1215       O  0.52100592  0.12743090  0.52678059    -0.62660
O1216       O  0.45223647  0.12829723  0.52581462    -0.71070
O1217       O  0.45152361  0.16703708  0.52607962    -0.70630
O1218       O  0.52241381  0.16617182  0.52700712    -0.61880
O1219       O  0.48766937  0.16664608  0.49080857    -0.74390
O1220       O  0.48688279  0.16627524  0.56210235    -0.73170
Cu1221     Cu  0.48661120  0.12662481  0.52626451     1.04560
Cu1222     Cu  0.48706690  0.16806984  0.52648796     1.04330
C1223       C  0.48689810  0.14645307  0.57245752     0.93130
C1224       C  0.48793004  0.14691603  0.48026611     0.92270
C1225       C  0.53268328  0.14634428  0.52718883     0.84420
C1226       C  0.44085974  0.14741794  0.52584675     0.90690
O1227       O  0.48773936  0.50827717  0.21925672    -0.73060
O1228       O  0.48713938  0.43702765  0.21902269    -0.74040
O1229       O  0.52248826  0.47219040  0.21905498    -0.62660
O1230       O  0.45170390  0.47297960  0.21971838    -0.71070
O1231       O  0.45240156  0.47309039  0.18095175    -0.70630
O1232       O  0.52123012  0.47238348  0.18028184    -0.61880
O1233       O  0.48667268  0.43830794  0.18026602    -0.74390
O1234       O  0.48722352  0.50719605  0.18049983    -0.73170
Cu1235     Cu  0.48720178  0.47262668  0.22079586     1.04560
Cu1236     Cu  0.48680888  0.47275698  0.17931983     1.04330
C1237       C  0.48792223  0.51876673  0.19948939     0.93130
C1238       C  0.48730548  0.42664753  0.19919711     0.92270
C1239       C  0.53282787  0.47204040  0.19926727     0.84420
C1240       C  0.44103674  0.47316128  0.20009734     0.90690
N1241       N  0.66681403  0.47312821  0.13634582    -0.27410
N1242       N  0.64425249  0.47205600  0.13231788    -0.35270
C1243       C  0.64034467  0.47205239  0.10938127     0.00930
C1244       C  0.66146457  0.47314310  0.09807528     0.06960
C1245       C  0.67812482  0.47378987  0.11563428    -0.06140
H1246       H  0.62322415  0.47131821  0.10152090     0.07620
H1247       H  0.69682209  0.47472671  0.11356175     0.08820
Cu1248     Cu  0.61922983  0.47081841  0.15745934     0.44170
Cu1249     Cu  0.67834905  0.47352497  0.17063020     0.41990
Cu1250     Cu  0.63007615  0.46895106  0.21700825     0.43880
N1251       N  0.59299513  0.47056791  0.18136061    -0.34800
N1252       N  0.59623688  0.46986963  0.20413906    -0.29050
C1253       C  0.57521857  0.47031895  0.21476102    -0.05150
C1254       C  0.55827409  0.47135650  0.19746525     0.07060
C1255       C  0.57025615  0.47146031  0.17663990     0.00860
H1256       H  0.57250945  0.46998626  0.23346035     0.08510
H1257       H  0.56300399  0.47221395  0.15920869     0.07590
N1258       N  0.66588296  0.47048386  0.22269641    -0.36250
N1259       N  0.68244199  0.47261464  0.20667398    -0.28430
C1260       C  0.70317684  0.47367794  0.21742210    -0.03660
C1261       C  0.69967060  0.47228358  0.24125757     0.04950
C1262       C  0.67584008  0.46995918  0.24393270     0.03040
H1263       H  0.71968117  0.47537288  0.20846241     0.08140
H1264       H  0.66627556  0.46739583  0.25995918     0.06980
N1265       N  0.87674854  0.47491862  0.34704154    -0.27410
N1266       N  0.88033169  0.47386383  0.36976408    -0.35270
C1267       C  0.90319269  0.47331377  0.37403948     0.00930
C1268       C  0.91484256  0.47400732  0.35298419     0.06960
C1269       C  0.89757694  0.47502163  0.33603912    -0.06140
H1270       H  0.91077599  0.47241692  0.39132074     0.07620
H1271       H  0.89993708  0.47575168  0.31730383     0.08820
Cu1272     Cu  0.85426354  0.47299812  0.39414656     0.44170
Cu1273     Cu  0.84285286  0.47565521  0.33450526     0.41990
Cu1274     Cu  0.79475178  0.47088181  0.38069905     0.43880
N1275       N  0.82886550  0.47233778  0.41922594    -0.34800
N1276       N  0.80629717  0.47155109  0.41507207    -0.29050
C1277       C  0.79483235  0.47150027  0.43573604    -0.05150
C1278       C  0.81135068  0.47228076  0.45344669     0.07060
C1279       C  0.83257111  0.47278256  0.44222090     0.00860
H1280       H  0.77610510  0.47094807  0.43767900     0.08510
H1281       H  0.84963723  0.47346659  0.45020023     0.07590
N1282       N  0.79056919  0.47160977  0.34458684    -0.36250
N1283       N  0.80717103  0.47381905  0.32862809    -0.28430
C1284       C  0.79734032  0.47430139  0.30733714    -0.03660
C1285       C  0.77351693  0.47188705  0.30988085     0.04950
C1286       C  0.76989095  0.47045848  0.33371715     0.03040
H1287       H  0.80698200  0.47695793  0.29137266     0.08140
H1288       H  0.75333911  0.46875373  0.34258513     0.06980
O1289       O  0.68350790  0.47362069  0.99120420    -0.73060
O1290       O  0.68353057  0.47356552  0.06232154    -0.74040
O1291       O  0.68345942  0.43808368  0.02679753    -0.62660
O1292       O  0.68383329  0.50911025  0.02683714    -0.71070
O1293       O  0.64519186  0.50834908  0.02689333    -0.70630
O1294       O  0.64482004  0.43908365  0.02678721    -0.61880
O1295       O  0.64489427  0.47364542  0.06094974    -0.74390
O1296       O  0.64486719  0.47364986  0.99249969    -0.73170
Cu1297     Cu  0.68511776  0.47359845  0.02676164     1.04560
Cu1298     Cu  0.64376781  0.47371322  0.02675358     1.04330
C1299       C  0.66374989  0.47349693  0.98086284     0.93130
C1300       C  0.66374436  0.47351313  0.07262019     0.92270
C1301       C  0.66381251  0.42754370  0.02693106     0.84420
C1302       C  0.66425237  0.51977352  0.02707111     0.90690
N1303       N  0.81471102  0.08288564  0.02333703    -0.27410
N1304       N  0.83732847  0.07899557  0.02412465    -0.35270
C1305       C  0.84132881  0.05602463  0.02473113     0.00930
C1306       C  0.82023786  0.04452968  0.02434016     0.06960
C1307       C  0.80352037  0.06208304  0.02344979    -0.06140
H1308       H  0.85848668  0.04824292  0.02547524     0.07620
H1309       H  0.78481654  0.05992687  0.02298105     0.08820
Cu1310     Cu  0.86215068  0.10468993  0.02468787     0.44170
Cu1311     Cu  0.80273151  0.11724143  0.02269130     0.41990
Cu1312     Cu  0.84961647  0.16454595  0.02796916     0.43880
N1313       N  0.88763931  0.12970428  0.02562309    -0.34800
N1314       N  0.88376490  0.15236996  0.02692406    -0.29050
C1315       C  0.90450055  0.16358191  0.02723342    -0.05150
C1316       C  0.92198446  0.14683410  0.02608837     0.07060
C1317       C  0.91054339  0.12570247  0.02509987     0.00860
H1318       H  0.90665577  0.18231465  0.02828574     0.08510
H1319       H  0.91831365  0.10851192  0.02411909     0.07590
N1320       N  0.81364910  0.16962335  0.02708191    -0.36250
N1321       N  0.79748445  0.15328401  0.02456128    -0.28430
C1322       C  0.77645440  0.16357556  0.02391424    -0.03660
C1323       C  0.77929769  0.18744093  0.02664133     0.04950
C1324       C  0.80314274  0.19057260  0.02833782     0.03040
H1325       H  0.76045902  0.15418520  0.02093564     0.08140
H1326       H  0.81226854  0.20697327  0.03033701     0.06980
N1327       N  0.66954302  0.36389784  0.02787263    -0.27410
N1328       N  0.64677559  0.36674730  0.02840495    -0.35270
C1329       C  0.64168290  0.38953660  0.02814337     0.00930
C1330       C  0.66225448  0.40192526  0.02741769     0.06960
C1331       C  0.67975046  0.38515314  0.02728972    -0.06140
H1332       H  0.62418911  0.39656074  0.02836097     0.07620
H1333       H  0.69833531  0.38814479  0.02667366     0.08820
Cu1334     Cu  0.62361006  0.33961664  0.02882738     0.44170
Cu1335     Cu  0.68312886  0.33020129  0.02740873     0.41990
Cu1336     Cu  0.63840156  0.28042750  0.02281261     0.43880
N1337       N  0.59925709  0.31359991  0.02761739    -0.34800
N1338       N  0.60370121  0.29114319  0.02511272    -0.29050
C1339       C  0.58317311  0.27946002  0.02443809    -0.05150
C1340       C  0.56529247  0.29576072  0.02658002     0.07060
C1341       C  0.57632158  0.31701705  0.02856474     0.00860
H1342       H  0.58141624  0.26078028  0.02227138     0.08510
H1343       H  0.56822302  0.33399438  0.03030780     0.07590
N1344       N  0.67472807  0.27736618  0.02338602    -0.36250
N1345       N  0.69010941  0.29450121  0.02559819    -0.28430
C1346       C  0.71162434  0.28525885  0.02657600    -0.03660
C1347       C  0.70992586  0.26122080  0.02452253     0.04950
C1348       C  0.68624972  0.25694724  0.02268925     0.03040
H1349       H  0.72712070  0.29547406  0.02948845     0.08140
H1350       H  0.67790672  0.24008033  0.02120235     0.06980
N1351       N  0.81355796  0.97565490  0.13548694    -0.27410
N1352       N  0.83619861  0.97480181  0.13176727    -0.35270
C1353       C  0.84039150  0.97391999  0.10883678     0.00930
C1354       C  0.81940698  0.97418647  0.09715934     0.06960
C1355       C  0.80253612  0.97531101  0.11457674    -0.06140
H1356       H  0.85761637  0.97307681  0.10121021     0.07620
H1357       H  0.78385147  0.97578467  0.11225591     0.08820
Cu1358     Cu  0.86083020  0.97444665  0.15758750     0.44170
Cu1359     Cu  0.80145249  0.97666294  0.16983799     0.41990
Cu1360     Cu  0.84841761  0.97140363  0.21732796     0.43880
N1361       N  0.88638222  0.97351555  0.18247273    -0.34800
N1362       N  0.88258280  0.97231067  0.20516273    -0.29050
C1363       C  0.90336439  0.97203198  0.21630162    -0.05150
C1364       C  0.92078081  0.97308394  0.19946053     0.07060
C1365       C  0.90926041  0.97399233  0.17836613     0.00860
H1366       H  0.90559643  0.97109981  0.23504190     0.08510
H1367       H  0.91695447  0.97493211  0.16113018     0.07590
N1368       N  0.81242820  0.97249373  0.22230613    -0.36250
N1369       N  0.79626930  0.97506086  0.20595397    -0.28430
C1370       C  0.77525162  0.97591188  0.21627085    -0.03660
C1371       C  0.77808097  0.97326057  0.24017078     0.04950
C1372       C  0.80192433  0.97138417  0.24327280     0.03040
H1373       H  0.75928810  0.97895860  0.20685242     0.08140
H1374       H  0.81106246  0.96935600  0.25967246     0.06980
N1375       N  0.66934377  0.97152960  0.41742286    -0.27410
N1376       N  0.64659084  0.97103699  0.42038186    -0.35270
C1377       C  0.64160497  0.97101222  0.44320424     0.00930
C1378       C  0.66223538  0.97151812  0.45549861     0.06960
C1379       C  0.67965447  0.97183003  0.43864312    -0.06140
H1380       H  0.62414302  0.97085943  0.45031226     0.07620
H1381       H  0.69825157  0.97245670  0.44155593     0.08820
Cu1382     Cu  0.62329052  0.97113483  0.39338393     0.44170
Cu1383     Cu  0.68275003  0.97237224  0.38365250     0.41990
Cu1384     Cu  0.63768995  0.97733699  0.33415086     0.43880
N1385       N  0.59876603  0.97226568  0.36754302    -0.34800
N1386       N  0.60304908  0.97478865  0.34504806    -0.29050
C1387       C  0.58244044  0.97519720  0.33348356    -0.05150
C1388       C  0.56468515  0.97284255  0.34990434     0.07060
C1389       C  0.57586870  0.97103778  0.37110565     0.00860
H1390       H  0.58054224  0.97728983  0.31479981     0.08510
H1391       H  0.56790169  0.96918725  0.38814177     0.07590
N1392       N  0.67401385  0.97680353  0.33087792    -0.36250
N1393       N  0.68949717  0.97442113  0.34790649    -0.28430
C1394       C  0.71094864  0.97339216  0.33851669    -0.03660
C1395       C  0.70911878  0.97559624  0.31448242     0.04950
C1396       C  0.68541328  0.97758673  0.31038316     0.03040
H1397       H  0.72647525  0.97031707  0.34863686     0.08140
H1398       H  0.67695616  0.97920575  0.29357651     0.06980
O1399       O  0.83620103  0.93825445  0.02579632    -0.73060
O1400       O  0.83671834  0.00711761  0.02507891    -0.74040
O1401       O  0.83630360  0.97311066  0.05992622    -0.62660
O1402       O  0.83655007  0.97228073  0.99103619    -0.71070
O1403       O  0.79794423  0.97251978  0.98957942    -0.70630
O1404       O  0.79768780  0.97347359  0.06102315    -0.61880
O1405       O  0.79811593  0.00865597  0.02479916    -0.74390
O1406       O  0.79759494  0.93713562  0.02566308    -0.73170
Cu1407     Cu  0.83756853  0.97267220  0.02547766     1.04560
Cu1408     Cu  0.79626766  0.97294493  0.02528105     1.04330
C1409       C  0.81730012  0.92662340  0.02570775     0.93130
C1410       C  0.81792908  0.01893522  0.02476169     0.92270
C1411       C  0.81737908  0.97354105  0.07153259     0.84420
C1412       C  0.81773460  0.97228668  0.97925776     0.90690
N1413       N  0.66675371  0.08304607  0.52601461    -0.27410
N1414       N  0.64419581  0.07894231  0.52711837    -0.35270
C1415       C  0.64037425  0.05598557  0.52721886     0.00930
C1416       C  0.66152449  0.04470680  0.52617137     0.06960
C1417       C  0.67811874  0.06234757  0.52544466    -0.06140
H1418       H  0.62328374  0.04807978  0.52809743     0.07620
H1419       H  0.69682750  0.06032870  0.52461829     0.08820
Cu1420     Cu  0.61899199  0.10400097  0.52851144     0.44170
Cu1421     Cu  0.67830234  0.11744948  0.52567188     0.41990
Cu1422     Cu  0.62997332  0.16348154  0.53140663     0.43880
N1423       N  0.59277540  0.12803095  0.52889372    -0.34800
N1424       N  0.59611874  0.15077012  0.52995381    -0.29050
C1425       C  0.57517033  0.16152572  0.52943855    -0.05150
C1426       C  0.55813135  0.14437286  0.52799507     0.07060
C1427       C  0.57000704  0.12347787  0.52771941     0.00860
H1428       H  0.57257302  0.18022444  0.53002955     0.08510
H1429       H  0.56265479  0.10611508  0.52666345     0.07590
N1430       N  0.66571503  0.16941338  0.52983965    -0.36250
N1431       N  0.68235302  0.15359128  0.52706712    -0.28430
C1432       C  0.70296037  0.16459696  0.52580412    -0.03660
C1433       C  0.69930526  0.18841454  0.52782137     0.04950
C1434       C  0.67546987  0.19071580  0.53068848     0.03040
H1435       H  0.71948386  0.15581793  0.52348703     0.08140
H1436       H  0.66569583  0.20649013  0.53376279     0.06980
N1437       N  0.87623189  0.29489314  0.52402085    -0.27410
N1438       N  0.87992631  0.31755093  0.52562455    -0.35270
C1439       C  0.90280101  0.32167398  0.52661934     0.00930
C1440       C  0.91433747  0.30057613  0.52565326     0.06960
C1441       C  0.89699373  0.28377378  0.52401068    -0.06140
H1442       H  0.91047196  0.33888104  0.52791244     0.07620
H1443       H  0.89925989  0.26505944  0.52283690     0.08820
Cu1444     Cu  0.85394751  0.34201006  0.52637668     0.44170
Cu1445     Cu  0.84228027  0.28260228  0.52241527     0.41990
Cu1446     Cu  0.79424382  0.32865129  0.52801329     0.43880
N1447       N  0.82858202  0.36710635  0.52654994    -0.34800
N1448       N  0.80598968  0.36302676  0.52717339    -0.29050
C1449       C  0.79461493  0.38373650  0.52686331    -0.05150
C1450       C  0.81120810  0.40138176  0.52600174     0.07060
C1451       C  0.83238034  0.39007186  0.52584326     0.00860
H1452       H  0.77589114  0.38576037  0.52721681     0.08510
H1453       H  0.84948258  0.39797367  0.52522396     0.07590
N1454       N  0.79000032  0.29248371  0.52701484    -0.36250
N1455       N  0.80661268  0.27664287  0.52424414    -0.28430
C1456       C  0.79688083  0.25532876  0.52357479    -0.03660
C1457       C  0.77306557  0.25762717  0.52654748     0.04950
C1458       C  0.76940384  0.28146668  0.52845696     0.03040
H1459       H  0.80665352  0.23955463  0.52050373     0.08140
H1460       H  0.75288027  0.29024866  0.53075944     0.06980
O1461       O  0.64528014  0.93895743  0.52840011    -0.73060
O1462       O  0.64506729  0.00746615  0.52642876    -0.74040
O1463       O  0.64497272  0.97220689  0.49274721    -0.62660
O1464       O  0.64561902  0.97429984  0.56196153    -0.71070
O1465       O  0.68426785  0.97407157  0.56251781    -0.70630
O1466       O  0.68360548  0.97251983  0.49153721    -0.61880
O1467       O  0.68368861  0.00892431  0.52629325    -0.74390
O1468       O  0.68390695  0.93769261  0.52783010    -0.73170
Cu1469     Cu  0.64406181  0.97321782  0.52737994     1.04560
Cu1470     Cu  0.68540173  0.97329917  0.52701295     1.04330
C1471       C  0.66416963  0.92732183  0.52846096     0.93130
C1472       C  0.66388051  0.01920262  0.52622834     0.92270
C1473       C  0.66390851  0.97209488  0.48110717     0.84420
C1474       C  0.66474088  0.97455926  0.57327286     0.90690
O1475       O  0.78908912  0.47257275  0.48925165    -0.73060
O1476       O  0.78901125  0.47308226  0.56063204    -0.74040
O1477       O  0.78896817  0.50863874  0.52466031    -0.62660
O1478       O  0.78905756  0.43722300  0.52531107    -0.71070
O1479       O  0.82767134  0.43866614  0.52536975    -0.70630
O1480       O  0.82758122  0.50729414  0.52468723    -0.61880
O1481       O  0.82763502  0.47332092  0.55929705    -0.74390
O1482       O  0.82770171  0.47265251  0.49074352    -0.73170
Cu1483     Cu  0.78743471  0.47289385  0.52495383     1.04560
Cu1484     Cu  0.82875580  0.47298892  0.52501684     1.04330
C1485       C  0.80890858  0.47250158  0.47897511     0.93130
C1486       C  0.80878328  0.47319925  0.57098278     0.92270
C1487       C  0.80873554  0.51900402  0.52459106     0.84420
C1488       C  0.80885572  0.42691979  0.52552401     0.90690
C1489       C  0.73917201  0.20137942  0.53783482    -0.20430
C1490       C  0.71756084  0.20678957  0.52772555    -0.06990
C1491       C  0.71458741  0.22881014  0.51685099     0.13880
C1492       C  0.73322662  0.24462528  0.51652009    -0.20480
C1493       C  0.75482818  0.23923078  0.52665017    -0.07000
C1494       C  0.75782584  0.21718274  0.53747298     0.13870
C1495       C  0.78017339  0.21016849  0.54936032    -0.23830
H1496       H  0.74149071  0.18458945  0.54624476     0.15150
H1497       H  0.73090968  0.26140612  0.50809309     0.15180
C1498       C  0.69228926  0.23576592  0.50483937    -0.23780
H1499       H  0.77817242  0.19364913  0.55932390     0.05390
H1500       H  0.78568381  0.22389289  0.56188440     0.08620
H1501       H  0.79392192  0.20701814  0.53616777     0.08620
H1502       H  0.67847629  0.23894447  0.51795599     0.08600
H1503       H  0.68685129  0.22199610  0.49233226     0.08600
H1504       H  0.69432253  0.25225279  0.49482932     0.05380
C1505       C  0.76566976  0.98429037  0.28022151    -0.20430
C1506       C  0.76008994  0.97352116  0.25888866    -0.06990
C1507       C  0.73811615  0.96255254  0.25649965     0.13880
C1508       C  0.72232082  0.96321724  0.27519609    -0.20480
C1509       C  0.72769927  0.97435329  0.29637454    -0.07000
C1510       C  0.74989288  0.98484768  0.29898612     0.13870
C1511       C  0.75705817  0.99733782  0.32101323    -0.23830
H1512       H  0.78250437  0.99259659  0.28217754     0.15150
H1513       H  0.70552466  0.95483781  0.27323264     0.15180
C1514       C  0.73121237  0.94937193  0.23478490    -0.23780
H1515       H  0.77387359  0.00665552  0.31880484     0.05390
H1516       H  0.75958507  0.98458432  0.33532603     0.08620
H1517       H  0.74372279  0.01048317  0.32593593     0.08620
H1518       H  0.74502880  0.93670696  0.22992743     0.08600
H1519       H  0.72792055  0.96169838  0.22026911     0.08600
H1520       H  0.71485523  0.93936631  0.23740214     0.05380
C1521       C  0.76650146  0.22722258  0.01525935    -0.20430
C1522       C  0.76127025  0.20607950  0.02653033    -0.06990
C1523       C  0.73956887  0.20375312  0.03805428     0.13880
C1524       C  0.72362260  0.22230573  0.03738208    -0.20480
C1525       C  0.72863127  0.24327963  0.02572516    -0.07000
C1526       C  0.75057508  0.24584586  0.01468958     0.13870
C1527       C  0.75726090  0.26765047  0.00157497    -0.23830
H1528       H  0.78315048  0.22911229  0.00654859     0.15150
H1529       H  0.70701020  0.22040149  0.04615701     0.15180
C1530       C  0.73317349  0.18227400  0.05185260    -0.23780
H1531       H  0.77392927  0.26541704  0.99198064     0.05390
H1532       H  0.75983207  0.28227830  0.01395694     0.08620
H1533       H  0.74362717  0.27211948  0.98858259     0.08620
H1534       H  0.74728316  0.17788860  0.06435683     0.08600
H1535       H  0.72987634  0.16742874  0.03992918     0.08600
H1536       H  0.71696408  0.18492044  0.06211006     0.05380
C1537       C  0.73474781  0.48464211  0.29629606    -0.20430
C1538       C  0.75526545  0.47216450  0.29164051    -0.06990
C1539       C  0.75722153  0.45951481  0.27048865     0.13880
C1540       C  0.73858313  0.45974248  0.25468268    -0.20480
C1541       C  0.71802844  0.47215039  0.25938639    -0.07000
C1542       C  0.71613931  0.48492117  0.28046402     0.13870
C1543       C  0.69512203  0.49963870  0.28615700    -0.23830
H1544       H  0.73332837  0.49443311  0.31244263     0.15150
H1545       H  0.74000657  0.44996630  0.23852683     0.15180
C1546       C  0.77835419  0.44501334  0.26466800    -0.23780
H1547       H  0.69791539  0.51035391  0.30208727     0.05390
H1548       H  0.67987925  0.48834266  0.28963954     0.08620
H1549       H  0.69132333  0.51174744  0.27150158     0.08620
H1550       H  0.78225444  0.43280955  0.27921550     0.08600
H1551       H  0.79350324  0.45646978  0.26128761     0.08600
H1552       H  0.77565065  0.43442080  0.24863950     0.05380
C1553       C  0.21597382  0.48272212  0.27369561    -0.20430
C1554       C  0.22083041  0.47143906  0.29492980    -0.06990
C1555       C  0.24264715  0.46013620  0.29761030     0.13880
C1556       C  0.25864664  0.46030334  0.27900285    -0.20480
C1557       C  0.25367925  0.47138799  0.25768552    -0.07000
C1558       C  0.23200230  0.48296676  0.25513226     0.13870
C1559       C  0.22569424  0.49638361  0.23338680    -0.23830
H1560       H  0.19944328  0.49160508  0.27161378     0.15150
H1561       H  0.27519898  0.45145935  0.28108210     0.15180
C1562       C  0.24916650  0.44714609  0.31954871    -0.23780
H1563       H  0.20952862  0.50675798  0.23582187     0.05390
H1564       H  0.22234324  0.48418450  0.21877353     0.08620
H1565       H  0.23985990  0.50873420  0.22877600     0.08620
H1566       H  0.23525630  0.43455815  0.32429036     0.08600
H1567       H  0.25220169  0.45963618  0.33399238     0.08600
H1568       H  0.26556587  0.43710111  0.31731485     0.05380
C1569       C  0.99808978  0.22105113  0.26254997    -0.20430
C1570       C  0.97924268  0.20592179  0.25905724    -0.06990
C1571       C  0.95896955  0.20840459  0.27281648     0.13880
C1572       C  0.95813696  0.22589574  0.28999946    -0.20480
C1573       C  0.97698100  0.24104691  0.29346066    -0.07000
C1574       C  0.99728136  0.23850665  0.27974193     0.13870
C1575       C  0.01838093  0.25361462  0.28374420    -0.23830
H1576       H  0.01362669  0.21894968  0.25199362     0.15150
H1577       H  0.94261519  0.22798417  0.30057921     0.15180
C1578       C  0.93796228  0.19316860  0.26886983    -0.23780
H1579       H  0.03307450  0.24854841  0.27218221     0.05390
H1580       H  0.02427123  0.25185853  0.30213765     0.08620
H1581       H  0.01411584  0.27214288  0.28010296     0.08620
H1582       H  0.94240768  0.17465418  0.27238235     0.08600
H1583       H  0.93196275  0.19496171  0.25051581     0.08600
H1584       H  0.92330381  0.19807924  0.28054365     0.05380
C1585       C  0.24042070  0.98615545  0.29787209    -0.20430
C1586       C  0.26160288  0.97506863  0.29266343    -0.06990
C1587       C  0.26410532  0.96359364  0.27087377     0.13880
C1588       C  0.24539562  0.96357665  0.25509634    -0.20480
C1589       C  0.22418028  0.97459344  0.26034840    -0.07000
C1590       C  0.22172362  0.98615503  0.28209367     0.13870
C1591       C  0.19993953  0.99927271  0.28871135    -0.23830
H1592       H  0.23849783  0.99505980  0.31447001     0.15150
H1593       H  0.24731593  0.95467706  0.23849565     0.15180
C1594       C  0.28594410  0.95058922  0.26421373    -0.23780
H1595       H  0.20236410  0.00955126  0.30498721     0.05390
H1596       H  0.18555099  0.98687530  0.29210026     0.08620
H1597       H  0.19507723  0.01166657  0.27462400     0.08620
H1598       H  0.29080065  0.93809476  0.27821352     0.08600
H1599       H  0.30030623  0.96306220  0.26098104     0.08600
H1600       H  0.28359968  0.94044275  0.24784313     0.05380
C1601       C  0.26257334  0.22233462  0.01071474    -0.20430
C1602       C  0.26097996  0.24037673  0.02718626    -0.06990
C1603       C  0.24211151  0.24080098  0.04305846     0.13880
C1604       C  0.22508966  0.22332257  0.04173517    -0.20480
C1605       C  0.22663612  0.20532077  0.02521996    -0.07000
C1606       C  0.24555696  0.20483819  0.00940537     0.13870
C1607       C  0.24743539  0.18662341  0.99048006    -0.23830
H1608       H  0.27703706  0.22217625  0.99853896     0.15150
H1609       H  0.21062680  0.22348877  0.05391160     0.15180
C1610       C  0.24028855  0.25894678  0.06205706    -0.23780
H1611       H  0.26234889  0.19009191  0.97861847     0.05390
H1612       H  0.23130896  0.18654603  0.97978995     0.08620
H1613       H  0.25020627  0.16913602  0.99824697     0.08620
H1614       H  0.23745291  0.27646001  0.05437575     0.08600
H1615       H  0.25646322  0.25900793  0.07267450     0.08600
H1616       H  0.22543676  0.25540966  0.07397552     0.05380
C1617       C  0.21571975  0.22017742  0.51528296    -0.20430
C1618       C  0.22036527  0.24146238  0.52654295    -0.06990
C1619       C  0.24202693  0.24427712  0.53809888     0.13880
C1620       C  0.25809534  0.22574736  0.53818888    -0.20480
C1621       C  0.25333935  0.20438369  0.52712645    -0.07000
C1622       C  0.23182322  0.20168982  0.51529671     0.13870
C1623       C  0.22578718  0.17987243  0.50187883    -0.23830
H1624       H  0.19930211  0.21799861  0.50622125     0.15150
H1625       H  0.27453180  0.22792136  0.54721884     0.15180
C1626       C  0.24829636  0.26627499  0.55110369    -0.23780
H1627       H  0.20972574  0.18217929  0.49132331     0.05390
H1628       H  0.22238805  0.16528898  0.51409348     0.08620
H1629       H  0.24011917  0.17529953  0.48968732     0.08620
H1630       H  0.23420538  0.27101071  0.56351080     0.08600
H1631       H  0.25144811  0.28067541  0.53859902     0.08600
H1632       H  0.26456884  0.26413781  0.56136549     0.05380
C1633       C  0.48737244  0.22592273  0.29783986    -0.20430
C1634       C  0.50187453  0.20645669  0.29469751    -0.06990
C1635       C  0.51668186  0.20553105  0.27495409     0.13880
C1636       C  0.51591560  0.22369081  0.25850917    -0.20480
C1637       C  0.50105873  0.24293242  0.26139087    -0.07000
C1638       C  0.48668812  0.24415151  0.28146943     0.13870
C1639       C  0.46979693  0.26392366  0.28538836    -0.23830
H1640       H  0.47612067  0.22664798  0.31303219     0.15150
H1641       H  0.52708798  0.22290835  0.24325980     0.15180
C1642       C  0.53398383  0.18604057  0.27145599    -0.23780
H1643       H  0.45843089  0.26069821  0.30075673     0.05390
H1644       H  0.45838974  0.26604185  0.26987972     0.08620
H1645       H  0.47936820  0.28033606  0.28886025     0.08620
H1646       H  0.52484268  0.16941987  0.26785663     0.08600
H1647       H  0.54505074  0.18417736  0.28724612     0.08600
H1648       H  0.54564024  0.18946241  0.25635158     0.05380
C1649       C  0.23550750  0.74305968  0.51509012    -0.20430
C1650       C  0.25638191  0.73813792  0.52687156    -0.06990
C1651       C  0.25854810  0.71655799  0.53880932     0.13880
C1652       C  0.23978749  0.70080172  0.53873500    -0.20480
C1653       C  0.21882316  0.70584311  0.52715999    -0.07000
C1654       C  0.21679018  0.72726906  0.51493720     0.13870
C1655       C  0.19546073  0.73347793  0.50091463    -0.23830
H1656       H  0.23385027  0.75943615  0.50575324     0.15150
H1657       H  0.24144065  0.68441585  0.54805571     0.15180
C1658       C  0.28007211  0.71012858  0.55242133    -0.23780
H1659       H  0.19825656  0.74940942  0.49021334     0.05390
H1660       H  0.18065841  0.73724742  0.51271231     0.08620
H1661       H  0.19100092  0.71901154  0.48880694     0.08620
H1662       H  0.28463571  0.72433480  0.56479263     0.08600
H1663       H  0.29472445  0.70669915  0.54032515     0.08600
H1664       H  0.27748943  0.69393990  0.56278456     0.05380
C1665       C  0.99041270  0.70209346  0.27492567    -0.20430
C1666       C  0.97631198  0.70675962  0.29441181    -0.06990
C1667       C  0.96405697  0.72819554  0.29546385     0.13880
C1668       C  0.96647917  0.74435032  0.27714914    -0.20480
C1669       C  0.98061987  0.73969010  0.25767868    -0.07000
C1670       C  0.99283853  0.71822489  0.25662058     0.13870
C1671       C  0.00926524  0.71242427  0.23690543    -0.23830
H1672       H  0.99991212  0.68575523  0.27415741     0.15150
H1673       H  0.95706049  0.76073570  0.27794388     0.15180
C1674       C  0.94769682  0.73393675  0.31524494    -0.23780
H1675       H  0.01919472  0.69615138  0.24041380     0.05390
H1676       H  0.02204467  0.72676357  0.23451163     0.08620
H1677       H  0.99940681  0.70951424  0.22055326     0.08620
H1678       H  0.95757986  0.73663151  0.33161901     0.08600
H1679       H  0.93486584  0.71962910  0.31754881     0.08600
H1680       H  0.93785157  0.75028768  0.31186229     0.05380
C1681       C  0.22203383  0.72066199  0.03596167    -0.20430
C1682       C  0.22774726  0.74248835  0.02638754    -0.06990
C1683       C  0.25005170  0.74554737  0.01620532     0.13880
C1684       C  0.26573398  0.72674144  0.01587838    -0.20480
C1685       C  0.25997845  0.70489345  0.02538013    -0.07000
C1686       C  0.23771405  0.70186653  0.03564635     0.13870
C1687       C  0.23029091  0.67932735  0.04701483    -0.23830
H1688       H  0.20508817  0.71827197  0.04392981     0.15150
H1689       H  0.28269305  0.72912433  0.00793433     0.15180
C1690       C  0.25751834  0.76812919  0.00495752    -0.23780
H1691       H  0.21371913  0.68136775  0.05681774     0.05390
H1692       H  0.24373111  0.67337563  0.05960952     0.08620
H1693       H  0.22711993  0.66584896  0.03352293     0.08620
H1694       H  0.26052868  0.78157799  0.01851848     0.08600
H1695       H  0.24417227  0.77407946  0.99226267     0.08600
H1696       H  0.27418288  0.76615643  0.99529936     0.05380
C1697       C  0.51740757  0.72158751  0.29560631    -0.20430
C1698       C  0.49995324  0.73870265  0.29456312    -0.06990
C1699       C  0.48298067  0.73757637  0.27672108     0.13880
C1700       C  0.48446968  0.71991197  0.25981085    -0.20480
C1701       C  0.50217484  0.70307310  0.26054696    -0.07000
C1702       C  0.51879758  0.70379439  0.27875057     0.13870
C1703       C  0.53855487  0.68651723  0.27994202    -0.23830
H1704       H  0.53028391  0.72244444  0.30942295     0.15150
H1705       H  0.47156430  0.71906603  0.24602017     0.15180
C1706       C  0.46272477  0.75430303  0.27594248    -0.23780
H1707       H  0.55065413  0.69051357  0.29453768     0.05390
H1708       H  0.54866058  0.68698031  0.26340811     0.08620
H1709       H  0.53168764  0.66866746  0.28281137     0.08620
H1710       H  0.46893901  0.77230132  0.27261340     0.08600
H1711       H  0.45314801  0.75375233  0.29279081     0.08600
H1712       H  0.45027758  0.74977819  0.26180405     0.05380
C1713       C  0.23901975  0.48333396  0.75430905    -0.20430
C1714       C  0.21813291  0.47172535  0.75960234    -0.06990
C1715       C  0.21640252  0.45950879  0.78106422     0.13880
C1716       C  0.23533805  0.45967175  0.79661945    -0.20480
C1717       C  0.25614511  0.47147639  0.79143769    -0.07000
C1718       C  0.25799316  0.48342564  0.76982552     0.13870
C1719       C  0.27940824  0.49705880  0.76310316    -0.23830
H1720       H  0.24045261  0.49266133  0.73790078     0.15150
H1721       H  0.23390028  0.45033081  0.81301959     0.15180
C1722       C  0.19515528  0.44549976  0.78755224    -0.23780
H1723       H  0.27659247  0.50741920  0.74694637     0.05390
H1724       H  0.29402279  0.48498267  0.75946362     0.08620
H1725       H  0.28415085  0.50942552  0.77725616     0.08620
H1726       H  0.19055533  0.43334539  0.77316689     0.08600
H1727       H  0.18038251  0.45729841  0.79142227     0.08600
H1728       H  0.19812648  0.43486800  0.80350351     0.05380
C1729       C  0.24719860  0.96279100  0.79859077    -0.20430
C1730       C  0.22620436  0.97436461  0.79372378    -0.06990
C1731       C  0.22385652  0.98653806  0.77231752     0.13880
C1732       C  0.24244782  0.98653734  0.75642166    -0.20480
C1733       C  0.26339623  0.97486825  0.76123003    -0.07000
C1734       C  0.26579826  0.96279560  0.78268614     0.13870
C1735       C  0.28738275  0.94911687  0.78878580    -0.23830
H1736       H  0.24900113  0.95344370  0.81495315     0.15150
H1737       H  0.24063750  0.99588212  0.74005789     0.15180
C1738       C  0.20232492  0.00031547  0.76623892    -0.23780
H1739       H  0.28497684  0.93869724  0.80497195     0.05390
H1740       H  0.30210446  0.96114771  0.79205814     0.08620
H1741       H  0.29175352  0.93680565  0.77445638     0.08620
H1742       H  0.19788946  0.01247955  0.78067352     0.08600
H1743       H  0.18760128  0.98835877  0.76272923     0.08600
H1744       H  0.20484582  0.01091225  0.75018568     0.05380
C1745       C  0.99537320  0.24149774  0.77313948    -0.20430
C1746       C  0.97577093  0.24052502  0.75857343    -0.06990
C1747       C  0.95943058  0.22232321  0.76148610     0.13880
C1748       C  0.96323298  0.20540120  0.77883416    -0.20480
C1749       C  0.98280037  0.20643723  0.79346146    -0.07000
C1750       C  0.99920358  0.22457308  0.79044394     0.13870
C1751       C  0.02122190  0.22561913  0.80471756    -0.23830
H1752       H  0.00796058  0.25538135  0.77067471     0.15150
H1753       H  0.95068122  0.19148107  0.78126961     0.15180
C1754       C  0.93757187  0.22119005  0.74698818    -0.23780
H1755       H  0.03269805  0.24017134  0.79907563     0.05390
H1756       H  0.03108157  0.20905595  0.80271201     0.08620
H1757       H  0.01699912  0.22840959  0.82340179     0.08620
H1758       H  0.94203373  0.21863940  0.72831921     0.08600
H1759       H  0.92754241  0.23764525  0.74903249     0.08600
H1760       H  0.92618939  0.20647301  0.75238759     0.05380
C1761       C  0.48578058  0.22413707  0.79302377    -0.20430
C1762       C  0.50224877  0.24209893  0.79113898    -0.06990
C1763       C  0.51776347  0.24232772  0.77194121     0.13880
C1764       C  0.51654740  0.22434409  0.75529724    -0.20480
C1765       C  0.50037074  0.20612723  0.75747754    -0.07000
C1766       C  0.48445875  0.20627187  0.77633167     0.13870
C1767       C  0.46540830  0.18829785  0.77847658    -0.23830
H1768       H  0.47369490  0.22423257  0.80757708     0.15150
H1769       H  0.52858462  0.22424222  0.74070366     0.15180
C1770       C  0.53625025  0.26081841  0.76939223    -0.23780
H1771       H  0.45343881  0.19229560  0.79319146     0.05390
H1772       H  0.47293421  0.17081395  0.78181427     0.08620
H1773       H  0.45494156  0.18789426  0.76217497     0.08620
H1774       H  0.54721282  0.26136134  0.78535455     0.08600
H1775       H  0.52809942  0.27811388  0.76652029     0.08600
H1776       H  0.54782536  0.25730744  0.75424143     0.05380
C1777       C  0.96006426  0.73622306  0.78406963    -0.20430
C1778       C  0.98221426  0.74114010  0.79308830    -0.06990
C1779       C  0.00172778  0.72853762  0.78499250     0.13880
C1780       C  0.99862150  0.71108286  0.76806512    -0.20480
C1781       C  0.97647589  0.70613409  0.75907262    -0.07000
C1782       C  0.95696306  0.71875499  0.76712893     0.13870
C1783       C  0.93291172  0.71353061  0.75808038    -0.23830
H1784       H  0.94516843  0.74595306  0.79045072     0.15150
H1785       H  0.01352044  0.70135271  0.76168802     0.15180
C1786       C  0.02580814  0.73375554  0.79398353    -0.23780
H1787       H  0.91955139  0.72483244  0.76640157     0.05390
H1788       H  0.92842226  0.69504726  0.76181569     0.08620
H1789       H  0.93230851  0.71649791  0.73892682     0.08620
H1790       H  0.02649104  0.73071295  0.81312062     0.08600
H1791       H  0.03027077  0.75225465  0.79029565     0.08600
H1792       H  0.03915683  0.72249999  0.78558110     0.05380
C1793       C  0.74395550  0.98860782  0.79457886    -0.20430
C1794       C  0.76444687  0.97582201  0.79082405    -0.06990
C1795       C  0.76666719  0.96229451  0.77022156     0.13880
C1796       C  0.74814540  0.96168973  0.75423156    -0.20480
C1797       C  0.72746080  0.97410199  0.75825803    -0.07000
C1798       C  0.72551626  0.98811680  0.77854156     0.13870
C1799       C  0.70460972  0.00338440  0.78309781    -0.23830
H1800       H  0.74239981  0.99918338  0.81021197     0.15150
H1801       H  0.74967518  0.95112478  0.73858910     0.15180
C1802       C  0.78792812  0.94766275  0.76527643    -0.23780
H1803       H  0.70740243  0.01507417  0.79832708     0.05390
H1804       H  0.68918651  0.99254268  0.78714613     0.08620
H1805       H  0.70108324  0.01456403  0.76765446     0.08620
H1806       H  0.79162851  0.93601792  0.78032684     0.08600
H1807       H  0.80310011  0.95904772  0.76174547     0.08600
H1808       H  0.78551317  0.93648721  0.74960194     0.05380
C1809       C  0.74191311  0.74292304  0.03735636    -0.20430
C1810       C  0.76362510  0.73777846  0.02731285    -0.06990
C1811       C  0.76672516  0.71584131  0.01621028     0.13880
C1812       C  0.74794572  0.70013893  0.01509935    -0.20480
C1813       C  0.72610377  0.70552234  0.02474217    -0.07000
C1814       C  0.72319904  0.72719598  0.03635047     0.13870
C1815       C  0.70086949  0.73383634  0.04850708    -0.23830
H1816       H  0.73952907  0.75949312  0.04618150     0.15150
H1817       H  0.75030291  0.68351008  0.00637212     0.15180
C1818       C  0.78932664  0.70884554  0.00480194    -0.23780
H1819       H  0.70301219  0.74979442  0.05932422     0.05390
H1820       H  0.69516971  0.71955229  0.06029997     0.08620
H1821       H  0.68719795  0.73781266  0.03548006     0.08620
H1822       H  0.80273169  0.70559367  0.01831645     0.08600
H1823       H  0.79516842  0.72262724  0.99249635     0.08600
H1824       H  0.78753384  0.69238537  0.99469629     0.05380
C1825       C  0.75703706  0.45916243  0.77788750    -0.20430
C1826       C  0.75250796  0.47175759  0.75736727    -0.06990
C1827       C  0.73166015  0.48482244  0.75557404     0.13880
C1828       C  0.71587674  0.48465434  0.77425677    -0.20480
C1829       C  0.72037417  0.47201763  0.79475308    -0.07000
C1830       C  0.74126981  0.45902765  0.79659210     0.13870
C1831       C  0.74682999  0.44423672  0.81765005    -0.23830
H1832       H  0.77300604  0.44915434  0.77921386     0.15150
H1833       H  0.69992060  0.49468287  0.77293466     0.15180
C1834       C  0.72618791  0.49976088  0.73459897    -0.23780
H1835       H  0.76260165  0.43336961  0.81479808     0.05390
H1836       H  0.73211388  0.43227207  0.82147758     0.08620
H1837       H  0.75042996  0.45548031  0.83295747     0.08620
H1838       H  0.72255661  0.48862944  0.71921891     0.08600
H1839       H  0.74096297  0.51168237  0.73086285     0.08600
H1840       H  0.71046474  0.51068523  0.73750027     0.05380
C1841       C  0.73435210  0.70232735  0.53856056    -0.20430
C1842       C  0.75554202  0.70713765  0.52734207    -0.06990
C1843       C  0.75838455  0.72878635  0.51572835     0.13880
C1844       C  0.73992560  0.74482142  0.51562769    -0.20480
C1845       C  0.71868513  0.73995080  0.52673131    -0.07000
C1846       C  0.71592182  0.71839275  0.53852215     0.13870
C1847       C  0.69411634  0.71230623  0.55185849    -0.23830
H1848       H  0.73222648  0.68583475  0.54759347     0.15150
H1849       H  0.74205334  0.76131217  0.50659227     0.15180
C1850       C  0.78031030  0.73501527  0.50265783    -0.23780
H1851       H  0.69634038  0.69610621  0.56228966     0.05390
H1852       H  0.67957653  0.70905988  0.53959794     0.08620
H1853       H  0.68958270  0.72660168  0.56414773     0.08620
H1854       H  0.78493236  0.72088000  0.49021935     0.08600
H1855       H  0.79474341  0.73807000  0.51509853     0.08600
H1856       H  0.77820917  0.75136186  0.49243142     0.05380
C1857       C  0.48181292  0.72719958  0.76260369    -0.20430
C1858       C  0.50297285  0.73754130  0.75619028    -0.06990
C1859       C  0.52384863  0.73020428  0.76690448     0.13880
C1860       C  0.52302362  0.71295772  0.78432403    -0.20480
C1861       C  0.50180874  0.70287210  0.79098790    -0.07000
C1862       C  0.48098650  0.70991774  0.77996312     0.13870
C1863       C  0.45789886  0.69952875  0.78685521    -0.23830
H1864       H  0.46587523  0.73292632  0.75423188     0.15150
H1865       H  0.53894507  0.70730725  0.79277568     0.15180
C1866       C  0.54693498  0.74039969  0.75974852    -0.23780
H1867       H  0.44330597  0.70723695  0.77672604     0.05390
H1868       H  0.45460559  0.70279461  0.80569148     0.08620
H1869       H  0.45806740  0.68042139  0.78361386     0.08620
H1870       H  0.54699865  0.75949565  0.76305465     0.08600
H1871       H  0.54992047  0.73717692  0.74085069     0.08600
H1872       H  0.56158470  0.73248878  0.76963651     0.05380
loop_ 
_geom_bond_atom_site_label_1 
_geom_bond_atom_site_label_2 
_geom_bond_distance 
_geom_bond_site_symmetry_2 
_ccdc_geom_bond_type 
N1            N2   1.318       .  A
N1            C5   1.353       .  A
N1           Cu9   2.083       .  S
N2            C3   1.337       .  A
N2           Cu8   2.048       .  S
C3            C4   1.379       .  A
C3            H6   1.082       .  S
C4            C5   1.390       .  A
C4          C781   1.471       .  S
C5            H7   1.082       .  S
Cu8          N11   2.047       .  S
Cu9          N19   2.087       .  S
Cu10         N12   2.090       .  S
Cu10         N18   2.095       .  S
N11          N12   1.319       .  A
N11          C15   1.334       .  A
N12          C13   1.356       .  A
C13          C14   1.392       .  A
C13          H16   1.082       .  S
C14          C15   1.378       .  A
C14         C349   1.473       .  S
C15          H17   1.082       .  S
N18          N19   1.329       .  A
N18          C22   1.346       .  A
N19          C20   1.346       .  A
C20          C21   1.378       .  A
C20          H23   1.082       .  S
C21          C22   1.380       .  A
C21        C1858   1.472       .  S
C22          H24   1.082       .  S
N25          N26   1.318       .  A
N25          C29   1.353       .  A
N25         Cu33   2.082       .  S
N26          C27   1.337       .  A
N26         Cu32   2.049       .  S
C27          C28   1.379       .  A
C27          H30   1.082       .  S
C28          C29   1.390       .  A
C28         C533   1.471       .  S
C29          H31   1.082       .  S
Cu32         N35   2.048       .  S
Cu33         N43   2.087       .  S
Cu34         N36   2.090       .  S
Cu34         N42   2.095       .  S
N35          N36   1.319       .  A
N35          C39   1.335       .  A
N36          C37   1.356       .  A
C37          C38   1.392       .  A
C37          H40   1.082       .  S
C38          C39   1.378       .  A
C38         C597   1.473       .  S
C39          H41   1.082       .  S
N42          N43   1.329       .  A
N42          C46   1.346       .  A
N43          C44   1.346       .  A
C44          C45   1.378       .  A
C44          H47   1.082       .  S
C45          C46   1.380       .  A
C45        C1861   1.472       .  S
C46          H48   1.082       .  S
N49          N50   1.318       .  A
N49          C53   1.351       .  A
N49         Cu57   2.072       .  S
N50          C51   1.336       .  A
N50         Cu56   2.048       .  S
C51          C52   1.379       .  A
C51          H54   1.082       .  S
C52          C53   1.388       .  A
C52         C769   1.467       .  S
C53          H55   1.082       .  S
Cu56         N59   2.047       .  S
Cu57         N67   2.076       .  S
Cu58         N60   2.083       .  S
Cu58         N66   2.088       .  S
N59          N60   1.319       .  A
N59          C63   1.334       .  A
N60          C61   1.355       .  A
C61          C62   1.391       .  A
C61          H64   1.082       .  S
C62          C63   1.378       .  A
C62        C1487   1.470       .  S
C63          H65   1.082       .  S
N66          N67   1.326       .  A
N66          C70   1.344       .  A
N67          C68   1.343       .  A
C68          C69   1.383       .  A
C68          H71   1.078       .  S
C69          C70   1.385       .  A
C69        C1842   1.483       .  S
C70          H72   1.082       .  S
N73          N74   1.318       .  A
N73          C77   1.353       .  A
N73         Cu81   2.078       .  S
N74          C75   1.333       .  A
N74         Cu80   2.039       .  S
C75          C76   1.377       .  A
C75          H78   1.082       .  S
C76          C77   1.390       .  A
C76        C1471   1.467       .  S
C77          H79   1.082       .  S
Cu80         N83   2.039       .  S
Cu81         N91   2.084       .  S
Cu82         N84   2.076       .  S
Cu82         N90   2.080       .  S
N83          N84   1.318       .  A
N83          C87   1.335       .  A
N84          C85   1.351       .  A
C85          C86   1.389       .  A
C85          H88   1.082       .  S
C86          C87   1.377       .  A
C86         C783   1.465       .  S
C87          H89   1.082       .  S
N90          N91   1.326       .  A
N90          C94   1.343       .  A
N91          C92   1.343       .  A
C92          C93   1.384       .  A
C92          H95   1.082       .  S
C93          C94   1.384       .  A
C93        C1845   1.483       .  S
C94          H96   1.078       .  S
N97          N98   1.319       .  A
N97         C101   1.353       .  A
N97        Cu105   2.079       .  S
N98          C99   1.336       .  A
N98        Cu104   2.049       .  S
C99         C100   1.379       .  A
C99         H102   1.082       .  S
C100        C101   1.389       .  A
C100        C521   1.469       .  S
C101        H103   1.082       .  S
Cu104       N107   2.049       .  S
Cu105       N115   2.083       .  S
Cu106       N108   2.073       .  S
Cu106       N114   2.078       .  S
N107        N108   1.319       .  A
N107        C111   1.334       .  A
N108        C109   1.353       .  A
C109        C110   1.389       .  A
C109        H112   1.082       .  S
C110        C111   1.378       .  A
C110       C1486   1.467       .  S
C111        H113   1.082       .  S
N114        N115   1.326       .  A
N114        C118   1.343       .  A
N115        C116   1.343       .  A
C116        C117   1.383       .  A
C116        H119   1.082       .  S
C117        C118   1.382       .  A
C117       C1826   1.480       .  S
C118        H120   1.079       .  S
N121        N122   1.318       .  A
N121        C125   1.352       .  A
N121       Cu129   2.071       .  S
N122        C123   1.333       .  A
N122       Cu128   2.038       .  S
C123        C124   1.377       .  A
C123        H126   1.082       .  S
C124        C125   1.388       .  A
C124       C1299   1.464       .  S
C125        H127   1.082       .  S
Cu128       N131   2.038       .  S
Cu129       N139   2.075       .  S
Cu130       N132   2.082       .  S
Cu130       N138   2.087       .  S
N131        N132   1.318       .  A
N131        C135   1.335       .  A
N132        C133   1.352       .  A
C133        C134   1.390       .  A
C133        H136   1.082       .  S
C134        C135   1.376       .  A
C134        C535   1.467       .  S
C135        H137   1.082       .  S
N138        N139   1.327       .  A
N138        C142   1.344       .  A
N139        C140   1.343       .  A
C140        C141   1.382       .  A
C140        H143   1.079       .  S
C141        C142   1.384       .  A
C141       C1829   1.479       .  S
C142        H144   1.082       .  S
N145        N146   1.319       .  A
N145        C149   1.356       .  A
N145       Cu153   2.094       .  S
N146        C147   1.335       .  A
N146       Cu152   2.048       .  S
C147        C148   1.378       .  A
C147        H150   1.082       .  S
C148        C149   1.393       .  A
C148       C1409   1.474       .  S
C149        H151   1.082       .  S
Cu152       N155   2.048       .  S
Cu153       N163   2.098       .  S
Cu154       N156   2.080       .  S
Cu154       N162   2.084       .  S
N155        N156   1.318       .  A
N155        C159   1.336       .  A
N156        C157   1.353       .  A
C157        C158   1.390       .  A
C157        H160   1.082       .  S
C158        C159   1.379       .  A
C158        C707   1.470       .  S
C159        H161   1.082       .  S
N162        N163   1.326       .  A
N162        C166   1.345       .  A
N163        C164   1.345       .  A
C164        C165   1.388       .  A
C164        H167   1.082       .  S
C165        C166   1.386       .  A
C165       C1810   1.491       .  S
C166        H168   1.078       .  S
N169        N170   1.319       .  A
N169        C173   1.353       .  A
N169       Cu177   2.088       .  S
N170        C171   1.337       .  A
N170       Cu176   2.044       .  S
C171        C172   1.378       .  A
C171        H174   1.082       .  S
C172        C173   1.391       .  A
C172       C1302   1.471       .  S
C173        H175   1.082       .  S
Cu176       N179   2.043       .  S
Cu177       N187   2.093       .  S
Cu178       N180   2.086       .  S
Cu178       N186   2.091       .  S
N179        N180   1.318       .  A
N179        C183   1.334       .  A
N180        C181   1.355       .  A
C181        C182   1.392       .  A
C181        H184   1.082       .  S
C182        C183   1.377       .  A
C182        C596   1.471       .  S
C183        H185   1.082       .  S
N186        N187   1.327       .  A
N186        C190   1.344       .  A
N187        C188   1.346       .  A
C188        C189   1.386       .  A
C188        H191   1.082       .  S
C189        C190   1.386       .  A
C189       C1813   1.490       .  S
C190        H192   1.078       .  S
N193        N194   1.319       .  A
N193        C197   1.355       .  A
N193       Cu201   2.088       .  S
N194        C195   1.335       .  A
N194       Cu200   2.045       .  S
C195        C196   1.378       .  A
C195        H198   1.082       .  S
C196        C197   1.392       .  A
C196       C1412   1.471       .  S
C197        H199   1.082       .  S
Cu200       N203   2.045       .  S
Cu201       N211   2.093       .  S
Cu202       N204   2.073       .  S
Cu202       N210   2.077       .  S
N203        N204   1.318       .  A
N203        C207   1.335       .  A
N204        C205   1.352       .  A
C205        C206   1.388       .  A
C205        H208   1.082       .  S
C206        C207   1.378       .  A
C206        C459   1.466       .  S
C207        H209   1.082       .  S
N210        N211   1.327       .  A
N210        C214   1.344       .  A
N211        C212   1.345       .  A
C212        C213   1.385       .  A
C212        H215   1.082       .  S
C213        C214   1.382       .  A
C213       C1794   1.482       .  S
C214        H216   1.079       .  S
N217        N218   1.318       .  A
N217        C221   1.352       .  A
N217       Cu225   2.083       .  S
N218        C219   1.336       .  A
N218       Cu224   2.042       .  S
C219        C220   1.378       .  A
C219        H222   1.082       .  S
C220        C221   1.390       .  A
C220       C1474   1.469       .  S
C221        H223   1.082       .  S
Cu224       N227   2.041       .  S
Cu225       N235   2.088       .  S
Cu226       N228   2.081       .  S
Cu226       N234   2.086       .  S
N227        N228   1.318       .  A
N227        C231   1.333       .  A
N228        C229   1.355       .  A
C229        C230   1.391       .  A
C229        H232   1.082       .  S
C230        C231   1.377       .  A
C230        C347   1.469       .  S
C231        H233   1.082       .  S
N234        N235   1.327       .  A
N234        C238   1.343       .  A
N235        C236   1.345       .  A
C236        C237   1.383       .  A
C236        H239   1.082       .  S
C237        C238   1.383       .  A
C237       C1797   1.481       .  S
C238        H240   1.080       .  S
N241        N242   1.318       .  A
N241        C245   1.354       .  A
N241       Cu249   2.089       .  S
N242        C243   1.335       .  A
N242       Cu248   2.042       .  S
C243        C244   1.377       .  A
C243        H246   1.082       .  S
C244        C245   1.392       .  A
C244        C458   1.471       .  S
C245        H247   1.082       .  S
Cu248       N251   2.042       .  S
Cu249       N259   2.093       .  S
Cu250       N252   2.086       .  S
Cu250       N258   2.091       .  S
N251        N252   1.318       .  A
N251        C255   1.335       .  A
N252        C253   1.354       .  A
C253        C254   1.392       .  A
C253        H256   1.082       .  S
C254        C255   1.378       .  A
C254        C706   1.470       .  S
C255        H257   1.082       .  S
N258        N259   1.329       .  A
N258        C262   1.346       .  A
N259        C260   1.347       .  A
C260        C261   1.379       .  A
C260        H263   1.082       .  S
C261        C262   1.379       .  A
C261       C1778   1.472       .  S
C262        H264   1.082       .  S
N265        N266   1.319       .  A
N265        C269   1.354       .  A
N265       Cu273   2.087       .  S
N266        C267   1.335       .  A
N266       Cu272   2.044       .  S
C267        C268   1.378       .  A
C267        H270   1.082       .  S
C268        C269   1.392       .  A
C268        C519   1.471       .  S
C269        H271   1.082       .  S
Cu272       N275   2.043       .  S
Cu273       N283   2.092       .  S
Cu274       N276   2.086       .  S
Cu274       N282   2.091       .  S
N275        N276   1.319       .  A
N275        C279   1.335       .  A
N276        C277   1.354       .  A
C277        C278   1.391       .  A
C277        H280   1.082       .  S
C278        C279   1.378       .  A
C278        C768   1.470       .  S
C279        H281   1.082       .  S
N282        N283   1.329       .  A
N282        C286   1.346       .  A
N283        C284   1.346       .  A
C284        C285   1.379       .  A
C284        H287   1.082       .  S
C285        C286   1.379       .  A
C285       C1781   1.472       .  S
C286        H288   1.082       .  S
N289        N290   1.319       .  A
N289        C293   1.353       .  A
N289       Cu297   2.081       .  S
N290        C291   1.336       .  A
N290       Cu296   2.048       .  S
C291        C292   1.379       .  A
C291        H294   1.082       .  S
C292        C293   1.390       .  A
C292       C1223   1.470       .  S
C293        H295   1.082       .  S
Cu296       N299   2.048       .  S
Cu297       N307   2.085       .  S
Cu298       N300   2.084       .  S
Cu298       N306   2.088       .  S
N299        N300   1.319       .  A
N299        C303   1.335       .  A
N300        C301   1.355       .  A
C301        C302   1.391       .  A
C301        H304   1.082       .  S
C302        C303   1.378       .  A
C302        C350   1.471       .  S
C303        H305   1.082       .  S
N306        N307   1.328       .  A
N306        C310   1.344       .  A
N307        C308   1.345       .  A
C308        C309   1.381       .  A
C308        H311   1.082       .  S
C309        C310   1.382       .  A
C309       C1765   1.478       .  S
C310        H312   1.081       .  S
N313        N314   1.318       .  A
N313        C317   1.352       .  A
N313       Cu321   2.077       .  S
N314        C315   1.336       .  A
N314       Cu320   2.048       .  S
C315        C316   1.379       .  A
C315        H318   1.082       .  S
C316        C317   1.389       .  A
C316        C534   1.469       .  S
C317        H319   1.082       .  S
Cu320       N323   2.047       .  S
Cu321       N331   2.081       .  S
Cu322       N324   2.089       .  S
Cu322       N330   2.093       .  S
N323        N324   1.319       .  A
N323        C327   1.334       .  A
N324        C325   1.355       .  A
C325        C326   1.392       .  A
C325        H328   1.082       .  S
C326        C327   1.378       .  A
C326        C859   1.472       .  S
C327        H329   1.082       .  S
N330        N331   1.328       .  A
N330        C334   1.345       .  A
N331        C332   1.345       .  A
C332        C333   1.381       .  A
C332        H335   1.081       .  S
C333        C334   1.383       .  A
C333       C1762   1.478       .  S
C334        H336   1.082       .  S
O337       Cu345   2.045       .  S
O337        C347   1.281       .  A
O338       Cu345   2.052       .  S
O338        C348   1.283       .  A
O339       Cu345   2.051       .  S
O339        C349   1.281       .  A
O340       Cu345   2.049   1_545  S
O340        C350   1.281       .  A
O341       Cu346   1.969   1_545  S
O341        C350   1.273       .  A
O342       Cu346   1.970       .  S
O342        C349   1.274       .  A
O343       Cu346   1.971       .  S
O343        C348   1.273       .  A
O344       Cu346   1.967       .  S
O344        C347   1.273       .  A
Cu345      Cu346   2.372       .  S
C348        C426   1.473       .  S
N351        N352   1.319       .  A
N351        C355   1.354       .  A
N351       Cu359   2.086       .  S
N352        C353   1.335       .  A
N352       Cu358   2.044       .  S
C353        C354   1.378       .  A
C353        H356   1.082       .  S
C354        C355   1.392       .  A
C354       C1120   1.471       .  S
C355        H357   1.082       .  S
Cu358       N361   2.044       .  S
Cu359       N369   2.091       .  S
Cu360       N362   2.087       .  S
Cu360       N368   2.092       .  S
N361        N362   1.319       .  A
N361        C365   1.336       .  A
N362        C363   1.354       .  A
C363        C364   1.391       .  A
C363        H366   1.082       .  S
C364        C365   1.378       .  A
C364        C457   1.471       .  S
C365        H367   1.082       .  S
N368        N369   1.328       .  A
N368        C372   1.346       .  A
N369        C370   1.345       .  A
C370        C371   1.381       .  A
C370        H373   1.081       .  S
C371        C372   1.381       .  A
C371       C1749   1.478       .  S
C372        H374   1.082       .  S
N375        N376   1.319       .  A
N375        C379   1.354       .  A
N375       Cu383   2.086       .  S
N376        C377   1.336       .  A
N376       Cu382   2.049       .  S
C377        C378   1.379       .  A
C377        H380   1.082       .  S
C378        C379   1.391       .  A
C378        C919   1.472       .  S
C379        H381   1.082       .  S
Cu382       N385   2.049       .  S
Cu383       N393   2.090       .  S
Cu384       N386   2.086       .  S
Cu384       N392   2.091       .  S
N385        N386   1.319       .  A
N385        C389   1.336       .  A
N386        C387   1.354       .  A
C387        C388   1.391       .  A
C387        H390   1.082       .  S
C388        C389   1.379       .  A
C388        C520   1.472       .  S
C389        H391   1.082       .  S
N392        N393   1.328       .  A
N392        C396   1.345       .  A
N393        C394   1.346       .  A
C394        C395   1.382       .  A
C394        H397   1.082       .  S
C395        C396   1.381       .  A
C395       C1746   1.477       .  S
C396        H398   1.082       .  S
N399        N400   1.318       .  A
N399        C403   1.353       .  A
N399       Cu407   2.078       .  S
N400        C401   1.335       .  A
N400       Cu406   2.047       .  S
C401        C402   1.379       .  A
C401        H404   1.082       .  S
C402        C403   1.390       .  A
C402        C460   1.470       .  S
C403        H405   1.082       .  S
Cu406       N409   2.047       .  S
Cu407       N417   2.083       .  S
Cu408       N410   2.083       .  S
Cu408       N416   2.088       .  S
N409        N410   1.319       .  A
N409        C413   1.335       .  A
N410        C411   1.354       .  A
C411        C412   1.391       .  A
C411        H414   1.082       .  S
C412        C413   1.378       .  A
C412       C1107   1.471       .  S
C413        H415   1.082       .  S
N416        N417   1.327       .  A
N416        C420   1.344       .  A
N417        C418   1.344       .  A
C418        C419   1.384       .  A
C418        H421   1.079       .  S
C419        C420   1.384       .  A
C419       C1730   1.484       .  S
C420        H422   1.082       .  S
N423        N424   1.320       .  A
N423        C427   1.353       .  A
N423       Cu431   2.076       .  S
N424        C425   1.339       .  A
N424       Cu430   2.066       .  S
C425        C426   1.382       .  A
C425        H428   1.082       .  S
C426        C427   1.388       .  A
C427        H429   1.082       .  S
Cu430       N433   2.066       .  S
Cu431       N441   2.080       .  S
Cu432       N434   2.080       .  S
Cu432       N440   2.084       .  S
N433        N434   1.320       .  A
N433        C437   1.336       .  A
N434        C435   1.355       .  A
C435        C436   1.389       .  A
C435        H438   1.082       .  S
C436        C437   1.382       .  A
C436        C933   1.475       .  S
C437        H439   1.082       .  S
N440        N441   1.326       .  A
N440        C444   1.343       .  A
N441        C442   1.344       .  A
C442        C443   1.384       .  A
C442        H445   1.079       .  S
C443        C444   1.384       .  A
C443       C1733   1.484       .  S
C444        H446   1.082       .  S
O447       Cu455   2.042   1_545  S
O447        C457   1.280       .  A
O448       Cu455   2.043       .  S
O448        C458   1.280       .  A
O449       Cu455   2.039       .  S
O449        C459   1.281       .  A
O450       Cu455   2.045   1_455  S
O450        C460   1.281       .  A
O451       Cu456   1.969   1_455  S
O451        C460   1.273       .  A
O452       Cu456   1.968       .  S
O452        C459   1.273       .  A
O453       Cu456   1.977       .  S
O453        C458   1.275       .  A
O454       Cu456   1.978   1_545  S
O454        C457   1.275       .  A
Cu455      Cu456   2.374       .  S
N461        N462   1.319       .  A
N461        C465   1.354       .  A
N461       Cu469   2.091       .  S
N462        C463   1.337       .  A
N462       Cu468   2.047       .  S
C463        C464   1.379       .  A
C463        H466   1.082       .  S
C464        C465   1.392       .  A
C464       C1209   1.474       .  S
C465        H467   1.082       .  S
Cu468       N471   2.047       .  S
Cu469       N479   2.095       .  S
Cu470       N472   2.092       .  S
Cu470       N478   2.097       .  S
N471        N472   1.319       .  A
N471        C475   1.335       .  A
N472        C473   1.356       .  A
C473        C474   1.393       .  A
C473        H476   1.082       .  S
C474        C475   1.378       .  A
C474        C522   1.474       .  S
C475        H477   1.082       .  S
N478        N479   1.327       .  A
N478        C482   1.346       .  A
N479        C480   1.346       .  A
C480        C481   1.386       .  A
C480        H483   1.082       .  S
C481        C482   1.387       .  A
C481       C1714   1.491       .  S
C482        H484   1.079       .  S
N485        N486   1.317       .  A
N485        C489   1.354       .  A
N485       Cu493   2.090       .  S
N486        C487   1.334       .  A
N486       Cu492   2.030       .  S
C487        C488   1.376       .  A
C487        H490   1.082       .  S
C488        C489   1.393       .  A
C488        C536   1.469       .  S
C489        H491   1.082       .  S
Cu492       N495   2.029       .  S
Cu493       N503   2.096       .  S
Cu494       N496   2.094       .  S
Cu494       N502   2.099       .  S
N495        N496   1.318       .  A
N495        C499   1.334       .  A
N496        C497   1.354       .  A
C497        C498   1.393       .  A
C497        H500   1.082       .  S
C498        C499   1.374       .  A
C498       C1197   1.469       .  S
C499        H501   1.082       .  S
N502        N503   1.328       .  A
N502        C506   1.346       .  A
N503        C504   1.346       .  A
C504        C505   1.387       .  A
C504        H507   1.078       .  S
C505        C506   1.387       .  A
C505       C1717   1.492       .  S
C506        H508   1.082       .  S
O509       Cu517   1.975       .  S
O509        C519   1.274       .  A
O510       Cu517   1.976       .  S
O510        C520   1.274       .  A
O511       Cu517   1.973       .  S
O511        C521   1.274       .  A
O512       Cu517   1.972   1_455  S
O512        C522   1.274       .  A
O513       Cu518   2.052   1_455  S
O513        C522   1.282       .  A
O514       Cu518   2.043       .  S
O514        C521   1.281       .  A
O515       Cu518   2.047       .  S
O515        C520   1.281       .  A
O516       Cu518   2.044       .  S
O516        C519   1.281       .  A
Cu517      Cu518   2.373       .  S
O523       Cu531   1.975       .  S
O523        C533   1.274       .  A
O524       Cu531   1.973       .  S
O524        C534   1.274       .  A
O525       Cu531   1.977       .  S
O525        C535   1.275       .  A
O526       Cu531   1.978       .  S
O526        C536   1.275       .  A
O527       Cu532   2.038       .  S
O527        C536   1.280       .  A
O528       Cu532   2.032       .  S
O528        C535   1.279       .  A
O529       Cu532   2.041       .  S
O529        C534   1.281       .  A
O530       Cu532   2.044       .  S
O530        C533   1.281       .  A
Cu531      Cu532   2.374       .  S
N537        N538   1.318       .  A
N537        C541   1.353       .  A
N537       Cu545   2.080       .  S
N538        C539   1.336       .  A
N538       Cu544   2.049       .  S
C539        C540   1.380       .  A
C539        H542   1.082       .  S
C540        C541   1.390       .  A
C540       C1237   1.470       .  S
C541        H543   1.082       .  S
Cu544       N547   2.048       .  S
Cu545       N555   2.085       .  S
Cu546       N548   2.091       .  S
Cu546       N554   2.096       .  S
N547        N548   1.319       .  A
N547        C551   1.335       .  A
N548        C549   1.356       .  A
C549        C550   1.393       .  A
C549        H552   1.082       .  S
C550        C551   1.378       .  A
C550        C598   1.474       .  S
C551        H553   1.082       .  S
N554        N555   1.328       .  A
N554        C558   1.345       .  A
N555        C556   1.345       .  A
C556        C557   1.381       .  A
C556        H559   1.081       .  S
C557        C558   1.383       .  A
C557       C1701   1.478       .  S
C558        H560   1.082       .  S
N561        N562   1.318       .  A
N561        C565   1.353       .  A
N561       Cu569   2.084       .  S
N562        C563   1.336       .  A
N562       Cu568   2.045       .  S
C563        C564   1.378       .  A
C563        H566   1.082       .  S
C564        C565   1.390       .  A
C564        C782   1.470       .  S
C565        H567   1.082       .  S
Cu568       N571   2.044       .  S
Cu569       N579   2.088       .  S
Cu570       N572   2.088       .  S
Cu570       N578   2.093       .  S
N571        N572   1.319       .  A
N571        C575   1.334       .  A
N572        C573   1.355       .  A
C573        C574   1.392       .  A
C573        H576   1.082       .  S
C574        C575   1.378       .  A
C574        C845   1.472       .  S
C575        H577   1.082       .  S
N578        N579   1.328       .  A
N578        C582   1.345       .  A
N579        C580   1.346       .  A
C580        C581   1.381       .  A
C580        H583   1.082       .  S
C581        C582   1.382       .  A
C581       C1698   1.478       .  S
C582        H584   1.081       .  S
O585       Cu593   2.057       .  S
O585        C595   1.283       .  A
O586       Cu593   2.049       .  S
O586        C596   1.281       .  A
O587       Cu593   2.050   1_556  S
O587        C597   1.281       .  A
O588       Cu593   2.053       .  S
O588        C598   1.282       .  A
O589       Cu594   1.971       .  S
O589        C598   1.274       .  A
O590       Cu594   1.973   1_556  S
O590        C597   1.274       .  A
O591       Cu594   1.970       .  S
O591        C596   1.274       .  A
O592       Cu594   1.974       .  S
O592        C595   1.273       .  A
Cu593      Cu594   2.371       .  S
C595        C636   1.476       .  S
N599        N600   1.319       .  A
N599        C603   1.355       .  A
N599       Cu607   2.090       .  S
N600        C601   1.335       .  A
N600       Cu606   2.047       .  S
C601        C602   1.379       .  A
C601        H604   1.082       .  S
C602        C603   1.392       .  A
C602        C708   1.473       .  S
C603        H605   1.082       .  S
Cu606       N609   2.047       .  S
Cu607       N617   2.095       .  S
Cu608       N610   2.075       .  S
Cu608       N616   2.079       .  S
N609        N610   1.318       .  A
N609        C613   1.335       .  A
N610        C611   1.353       .  A
C611        C612   1.389       .  A
C611        H614   1.082       .  S
C612        C613   1.379       .  A
C612       C1105   1.468       .  S
C613        H615   1.082       .  S
N616        N617   1.326       .  A
N616        C620   1.343       .  A
N617        C618   1.345       .  A
C618        C619   1.387       .  A
C618        H621   1.082       .  S
C619        C620   1.385       .  A
C619       C1682   1.489       .  S
C620        H622   1.077       .  S
N623        N624   1.319       .  A
N623        C627   1.354       .  A
N623       Cu631   2.073       .  S
N624        C625   1.336       .  A
N624       Cu630   2.066       .  S
C625        C626   1.383       .  A
C625        H628   1.082       .  S
C626        C627   1.388       .  A
C626       C1195   1.473       .  S
C627        H629   1.082       .  S
Cu630       N633   2.065       .  S
Cu631       N641   2.077       .  S
Cu632       N634   2.086       .  S
Cu632       N640   2.090       .  S
N633        N634   1.320       .  A
N633        C637   1.338       .  A
N634        C635   1.354       .  A
C635        C636   1.390       .  A
C635        H638   1.082       .  S
C636        C637   1.382       .  A
C637        H639   1.082       .  S
N640        N641   1.325       .  A
N640        C644   1.345       .  A
N641        C642   1.343       .  A
C642        C643   1.385       .  A
C642        H645   1.077       .  S
C643        C644   1.387       .  A
C643       C1685   1.488       .  S
C644        H646   1.082       .  S
N647        N648   1.319       .  A
N647        C651   1.355       .  A
N647       Cu655   2.090       .  S
N648        C649   1.335       .  A
N648       Cu654   2.043       .  S
C649        C650   1.377       .  A
C649        H652   1.082       .  S
C650        C651   1.392       .  A
C650       C1091   1.471       .  S
C651        H653   1.082       .  S
Cu654       N657   2.043       .  S
Cu655       N665   2.095       .  S
Cu656       N658   2.083       .  S
Cu656       N664   2.088       .  S
N657        N658   1.318       .  A
N657        C661   1.335       .  A
N658        C659   1.353       .  A
C659        C660   1.391       .  A
C659        H662   1.082       .  S
C660        C661   1.378       .  A
C660        C705   1.470       .  S
C661        H663   1.082       .  S
N664        N665   1.327       .  A
N664        C668   1.345       .  A
N665        C666   1.346       .  A
C666        C667   1.385       .  A
C666        H669   1.082       .  S
C667        C668   1.384       .  A
C667       C1669   1.486       .  S
C668        H670   1.079       .  S
N671        N672   1.319       .  A
N671        C675   1.355       .  A
N671       Cu679   2.090       .  S
N672        C673   1.335       .  A
N672       Cu678   2.048       .  S
C673        C674   1.378       .  A
C673        H676   1.082       .  S
C674        C675   1.392       .  A
C674       C1181   1.473       .  S
C675        H677   1.082       .  S
Cu678       N681   2.049       .  S
Cu679       N689   2.094       .  S
Cu680       N682   2.085       .  S
Cu680       N688   2.089       .  S
N681        N682   1.319       .  A
N681        C685   1.336       .  A
N682        C683   1.354       .  A
C683        C684   1.391       .  A
C683        H686   1.082       .  S
C684        C685   1.379       .  A
C684        C767   1.472       .  S
C685        H687   1.082       .  S
N688        N689   1.327       .  A
N688        C692   1.345       .  A
N689        C690   1.345       .  A
C690        C691   1.385       .  A
C690        H693   1.082       .  S
C691        C692   1.384       .  A
C691       C1666   1.486       .  S
C692        H694   1.080       .  S
O695       Cu703   1.975       .  S
O695        C705   1.274       .  A
O696       Cu703   1.974   1_556  S
O696        C706   1.274       .  A
O697       Cu703   1.975       .  S
O697        C707   1.274       .  A
O698       Cu703   1.975   1_455  S
O698        C708   1.274       .  A
O699       Cu704   2.049   1_455  S
O699        C708   1.281       .  A
O700       Cu704   2.042       .  S
O700        C707   1.281       .  A
O701       Cu704   2.043   1_556  S
O701        C706   1.281       .  A
O702       Cu704   2.041       .  S
O702        C705   1.280       .  A
Cu703      Cu704   2.373       .  S
N709        N710   1.319       .  A
N709        C713   1.354       .  A
N709       Cu717   2.091       .  S
N710        C711   1.336       .  A
N710       Cu716   2.043       .  S
C711        C712   1.378       .  A
C711        H714   1.082       .  S
C712        C713   1.392       .  A
C712       C1211   1.472       .  S
C713        H715   1.082       .  S
Cu716       N719   2.043       .  S
Cu717       N727   2.096       .  S
Cu718       N720   2.088       .  S
Cu718       N726   2.093       .  S
N719        N720   1.318       .  A
N719        C723   1.334       .  A
N720        C721   1.355       .  A
C721        C722   1.392       .  A
C721        H724   1.082       .  S
C722        C723   1.378       .  A
C722        C770   1.472       .  S
C723        H725   1.082       .  S
N726        N727   1.327       .  A
N726        C730   1.345       .  A
N727        C728   1.346       .  A
C728        C729   1.386       .  A
C728        H731   1.082       .  S
C729        C730   1.386       .  A
C729       C1653   1.490       .  S
C730        H732   1.079       .  S
N733        N734   1.317       .  A
N733        C737   1.354       .  A
N733       Cu741   2.086       .  S
N734        C735   1.334       .  A
N734       Cu740   2.032       .  S
C735        C736   1.376       .  A
C735        H738   1.082       .  S
C736        C737   1.392       .  A
C736        C784   1.469       .  S
C737        H739   1.082       .  S
Cu740       N743   2.031       .  S
Cu741       N751   2.092       .  S
Cu742       N744   2.094       .  S
Cu742       N750   2.100       .  S
N743        N744   1.318       .  A
N743        C747   1.334       .  A
N744        C745   1.355       .  A
C745        C746   1.394       .  A
C745        H748   1.082       .  S
C746        C747   1.374       .  A
C746        C935   1.469       .  S
C747        H749   1.082       .  S
N750        N751   1.328       .  A
N750        C754   1.346       .  A
N751        C752   1.345       .  A
C752        C753   1.385       .  A
C752        H755   1.078       .  S
C753        C754   1.387       .  A
C753       C1650   1.490       .  S
C754        H756   1.082       .  S
O757       Cu765   1.975       .  S
O757        C767   1.274       .  A
O758       Cu765   1.976       .  S
O758        C768   1.275       .  A
O759       Cu765   1.972       .  S
O759        C769   1.273       .  A
O760       Cu765   1.971   1_455  S
O760        C770   1.274       .  A
O761       Cu766   2.048   1_455  S
O761        C770   1.281       .  A
O762       Cu766   2.038       .  S
O762        C769   1.281       .  A
O763       Cu766   2.041       .  S
O763        C768   1.280       .  A
O764       Cu766   2.046       .  S
O764        C767   1.281       .  A
Cu765      Cu766   2.373       .  S
O771       Cu779   2.043       .  S
O771        C781   1.281       .  A
O772       Cu779   2.040       .  S
O772        C782   1.280       .  A
O773       Cu779   2.031       .  S
O773        C783   1.279       .  A
O774       Cu779   2.038       .  S
O774        C784   1.280       .  A
O775       Cu780   1.975       .  S
O775        C784   1.275       .  A
O776       Cu780   1.975       .  S
O776        C783   1.274       .  A
O777       Cu780   1.978       .  S
O777        C782   1.274       .  A
O778       Cu780   1.977       .  S
O778        C781   1.274       .  A
Cu779      Cu780   2.374       .  S
N785        N786   1.319       .  A
N785        C789   1.353       .  A
N785       Cu793   2.084       .  S
N786        C787   1.336       .  A
N786       Cu792   2.046       .  S
C787        C788   1.379       .  A
C787        H790   1.082       .  S
C788        C789   1.391       .  A
C788       C1224   1.471       .  S
C789        H791   1.082       .  S
Cu792       N795   2.045       .  S
Cu793       N803   2.089       .  S
Cu794       N796   2.082       .  S
Cu794       N802   2.087       .  S
N795        N796   1.319       .  A
N795        C799   1.334       .  A
N796        C797   1.354       .  A
C797        C798   1.391       .  A
C797        H800   1.082       .  S
C798        C799   1.378       .  A
C798        C846   1.470       .  S
C799        H801   1.082       .  S
N802        N803   1.327       .  A
N802        C806   1.344       .  A
N803        C804   1.345       .  A
C804        C805   1.383       .  A
C804        H807   1.082       .  S
C805        C806   1.383       .  A
C805       C1634   1.482       .  S
C806        H808   1.080       .  S
N809        N810   1.318       .  A
N809        C813   1.352       .  A
N809       Cu817   2.076       .  S
N810        C811   1.337       .  A
N810       Cu816   2.049       .  S
C811        C812   1.380       .  A
C811        H814   1.082       .  S
C812        C813   1.389       .  A
C812       C1238   1.469       .  S
C813        H815   1.082       .  S
Cu816       N819   2.048       .  S
Cu817       N827   2.080       .  S
Cu818       N820   2.090       .  S
Cu818       N826   2.095       .  S
N819        N820   1.319       .  A
N819        C823   1.334       .  A
N820        C821   1.356       .  A
C821        C822   1.392       .  A
C821        H824   1.082       .  S
C822        C823   1.378       .  A
C822        C860   1.473       .  S
C823        H825   1.082       .  S
N826        N827   1.327       .  A
N826        C830   1.345       .  A
N827        C828   1.344       .  A
C828        C829   1.382       .  A
C828        H831   1.080       .  S
C829        C830   1.385       .  A
C829       C1637   1.482       .  S
C830        H832   1.082       .  S
O833       Cu841   1.966       .  S
O833        C843   1.273       .  A
O834       Cu841   1.971       .  S
O834        C844   1.273       .  A
O835       Cu841   1.970       .  S
O835        C845   1.274       .  A
O836       Cu841   1.971   1_545  S
O836        C846   1.274       .  A
O837       Cu842   2.043   1_545  S
O837        C846   1.281       .  A
O838       Cu842   2.050       .  S
O838        C845   1.281       .  A
O839       Cu842   2.057       .  S
O839        C844   1.283       .  A
O840       Cu842   2.054       .  S
O840        C843   1.282       .  A
Cu841      Cu842   2.372       .  S
C843       C1388   1.473       .  S
C844       C1012   1.475       .  S
O847       Cu855   2.053       .  S
O847        C857   1.282       .  A
O848       Cu855   2.058       .  S
O848        C858   1.283       .  A
O849       Cu855   2.050   1_556  S
O849        C859   1.281       .  A
O850       Cu855   2.052       .  S
O850        C860   1.282       .  A
O851       Cu856   1.969       .  S
O851        C860   1.274       .  A
O852       Cu856   1.970   1_556  S
O852        C859   1.274       .  A
O853       Cu856   1.970       .  S
O853        C858   1.273       .  A
O854       Cu856   1.966       .  S
O854        C857   1.273       .  A
Cu855      Cu856   2.371       .  S
C857       C1340   1.473       .  S
C858        C964   1.475       .  S
N861        N862   1.318       .  A
N861        C865   1.353       .  A
N861       Cu869   2.085       .  S
N862        C863   1.337       .  A
N862       Cu868   2.044       .  S
C863        C864   1.379       .  A
C863        H866   1.082       .  S
C864        C865   1.391       .  A
C864       C1212   1.471       .  S
C865        H867   1.082       .  S
Cu868       N871   2.044       .  S
Cu869       N879   2.089       .  S
Cu870       N872   2.097       .  S
Cu870       N878   2.102       .  S
N871        N872   1.319       .  A
N871        C875   1.334       .  A
N872        C873   1.357       .  A
C873        C874   1.394       .  A
C873        H876   1.082       .  S
C874        C875   1.377       .  A
C874        C922   1.475       .  S
C875        H877   1.082       .  S
N878        N879   1.327       .  A
N878        C882   1.346       .  A
N879        C880   1.345       .  A
C880        C881   1.386       .  A
C880        H883   1.078       .  S
C881        C882   1.388       .  A
C881       C1618   1.492       .  S
C882        H884   1.082       .  S
N885        N886   1.318       .  A
N885        C889   1.355       .  A
N885       Cu893   2.094       .  S
N886        C887   1.334       .  A
N886       Cu892   2.034       .  S
C887        C888   1.376       .  A
C887        H890   1.082       .  S
C888        C889   1.393       .  A
C888       C1226   1.471       .  S
C889        H891   1.082       .  S
Cu892       N895   2.034       .  S
Cu893       N903   2.099       .  S
Cu894       N896   2.089       .  S
Cu894       N902   2.094       .  S
N895        N896   1.318       .  A
N895        C899   1.335       .  A
N896        C897   1.354       .  A
C897        C898   1.393       .  A
C897        H900   1.082       .  S
C898        C899   1.376       .  A
C898        C936   1.469       .  S
C899        H901   1.082       .  S
N902        N903   1.328       .  A
N902        C906   1.345       .  A
N903        C904   1.346       .  A
C904        C905   1.387       .  A
C904        H907   1.082       .  S
C905        C906   1.386       .  A
C905       C1621   1.492       .  S
C906        H908   1.078       .  S
O909       Cu917   1.973       .  S
O909        C919   1.274       .  A
O910       Cu917   1.974       .  S
O910        C920   1.274       .  A
O911       Cu917   1.974       .  S
O911        C921   1.274       .  A
O912       Cu917   1.972   1_455  S
O912        C922   1.274       .  A
O913       Cu918   2.053   1_455  S
O913        C922   1.281       .  A
O914       Cu918   2.039       .  S
O914        C921   1.280       .  A
O915       Cu918   2.047       .  S
O915        C920   1.281       .  A
O916       Cu918   2.048       .  S
O916        C919   1.281       .  A
Cu917      Cu918   2.373       .  S
C920       C1060   1.472       .  S
C921       C1440   1.468       .  S
O923       Cu931   2.064       .  S
O923        C933   1.284       .  A
O924       Cu931   2.068       .  S
O924        C934   1.285       .  A
O925       Cu931   2.032       .  S
O925        C935   1.278       .  A
O926       Cu931   2.032   1_545  S
O926        C936   1.278       .  A
O927       Cu932   1.983   1_545  S
O927        C936   1.276       .  A
O928       Cu932   1.983       .  S
O928        C935   1.276       .  A
O929       Cu932   1.961       .  S
O929        C934   1.271       .  A
O930       Cu932   1.961       .  S
O930        C933   1.271       .  A
Cu931      Cu932   2.372       .  S
C934       C1022   1.477       .  S
N937        N938   1.319       .  A
N937        C941   1.355       .  A
N937       Cu945   2.087       .  S
N938        C939   1.335       .  A
N938       Cu944   2.046       .  S
C939        C940   1.378       .  A
C939        H942   1.082       .  S
C940        C941   1.391       .  A
C940       C1122   1.472       .  S
C941        H943   1.082       .  S
Cu944       N947   2.046       .  S
Cu945       N955   2.091       .  S
Cu946       N948   2.069       .  S
Cu946       N954   2.074       .  S
N947        N948   1.318       .  A
N947        C951   1.335       .  A
N948        C949   1.352       .  A
C949        C950   1.388       .  A
C949        H952   1.082       .  S
C950        C951   1.379       .  A
C950       C1106   1.466       .  S
C951        H953   1.082       .  S
N954        N955   1.327       .  A
N954        C958   1.342       .  A
N955        C956   1.345       .  A
C956        C957   1.383       .  A
C956        H959   1.082       .  S
C957        C958   1.379       .  A
C957       C1605   1.475       .  S
C958        H960   1.081       .  S
N961        N962   1.320       .  A
N961        C965   1.354       .  A
N961       Cu969   2.083       .  S
N962        C963   1.338       .  A
N962       Cu968   2.067       .  S
C963        C964   1.382       .  A
C963        H966   1.082       .  S
C964        C965   1.389       .  A
C965        H967   1.082       .  S
Cu968       N971   2.067       .  S
Cu969       N979   2.086       .  S
Cu970       N972   2.069       .  S
Cu970       N978   2.072       .  S
N971        N972   1.319       .  A
N971        C975   1.337       .  A
N972        C973   1.353       .  A
C973        C974   1.387       .  A
C973        H976   1.082       .  S
C974        C975   1.383       .  A
C974       C1196   1.472       .  S
C975        H977   1.082       .  S
N978        N979   1.327       .  A
N978        C982   1.342       .  A
N979        C980   1.345       .  A
C980        C981   1.382       .  A
C980        H983   1.082       .  S
C981        C982   1.379       .  A
C981       C1602   1.475       .  S
C982        H984   1.081       .  S
N985        N986   1.318       .  A
N985        C989   1.354       .  A
N985       Cu993   2.083       .  S
N986        C987   1.336       .  A
N986       Cu992   2.047       .  S
C987        C988   1.379       .  A
C987        H990   1.082       .  S
C988        C989   1.391       .  A
C988       C1094   1.471       .  S
C989        H991   1.082       .  S
Cu992       N995   2.047       .  S
Cu993      N1003   2.087       .  S
Cu994       N996   2.082       .  S
Cu994      N1002   2.087       .  S
N995        N996   1.319       .  A
N995        C999   1.335       .  A
N996        C997   1.354       .  A
C997        C998   1.390       .  A
C997       H1000   1.082       .  S
C998        C999   1.378       .  A
C998       C1108   1.470       .  S
C999       H1001   1.082       .  S
N1002      N1003   1.327       .  A
N1002      C1006   1.344       .  A
N1003      C1004   1.344       .  A
C1004      C1005   1.385       .  A
C1004      H1007   1.078       .  S
C1005      C1006   1.385       .  A
C1005      C1589   1.487       .  S
C1006      H1008   1.082       .  S
N1009      N1010   1.320       .  A
N1009      C1013   1.353       .  A
N1009     Cu1017   2.079       .  S
N1010      C1011   1.339       .  A
N1010     Cu1016   2.068       .  S
C1011      C1012   1.383       .  A
C1011      H1014   1.082       .  S
C1012      C1013   1.389       .  A
C1013      H1015   1.082       .  S
Cu1016     N1019   2.068       .  S
Cu1017     N1027   2.082       .  S
Cu1018     N1020   2.084       .  S
Cu1018     N1026   2.087       .  S
N1019      N1020   1.320       .  A
N1019      C1023   1.337       .  A
N1020      C1021   1.356       .  A
C1021      C1022   1.390       .  A
C1021      H1024   1.082       .  S
C1022      C1023   1.383       .  A
C1023      H1025   1.082       .  S
N1026      N1027   1.326       .  A
N1026      C1030   1.344       .  A
N1027      C1028   1.344       .  A
C1028      C1029   1.385       .  A
C1028      H1031   1.078       .  S
C1029      C1030   1.385       .  A
C1029      C1586   1.486       .  S
C1030      H1032   1.082       .  S
N1033      N1034   1.319       .  A
N1033      C1037   1.354       .  A
N1033     Cu1041   2.086       .  S
N1034      C1035   1.335       .  A
N1034     Cu1040   2.047       .  S
C1035      C1036   1.378       .  A
C1035      H1038   1.082       .  S
C1036      C1037   1.391       .  A
C1036      C1119   1.471       .  S
C1037      H1039   1.082       .  S
Cu1040     N1043   2.047       .  S
Cu1041     N1051   2.090       .  S
Cu1042     N1044   2.086       .  S
Cu1042     N1050   2.091       .  S
N1043      N1044   1.319       .  A
N1043      C1047   1.336       .  A
N1044      C1045   1.354       .  A
C1045      C1046   1.391       .  A
C1045      H1048   1.082       .  S
C1046      C1047   1.379       .  A
C1046      C1092   1.472       .  S
C1047      H1049   1.082       .  S
N1050      N1051   1.329       .  A
N1050      C1054   1.346       .  A
N1051      C1052   1.346       .  A
C1052      C1053   1.380       .  A
C1052      H1055   1.082       .  S
C1053      C1054   1.380       .  A
C1053      C1570   1.475       .  S
C1054      H1056   1.082       .  S
N1057      N1058   1.319       .  A
N1057      C1061   1.354       .  A
N1057     Cu1065   2.086       .  S
N1058      C1059   1.336       .  A
N1058     Cu1064   2.050       .  S
C1059      C1060   1.379       .  A
C1059      H1062   1.082       .  S
C1060      C1061   1.391       .  A
C1061      H1063   1.082       .  S
Cu1064     N1067   2.050       .  S
Cu1065     N1075   2.091       .  S
Cu1066     N1068   2.084       .  S
Cu1066     N1074   2.088       .  S
N1067      N1068   1.319       .  A
N1067      C1071   1.336       .  A
N1068      C1069   1.354       .  A
C1069      C1070   1.391       .  A
C1069      H1072   1.082       .  S
C1070      C1071   1.379       .  A
C1070      C1182   1.472       .  S
C1071      H1073   1.082       .  S
N1074      N1075   1.328       .  A
N1074      C1078   1.345       .  A
N1075      C1076   1.346       .  A
C1076      C1077   1.380       .  A
C1076      H1079   1.082       .  S
C1077      C1078   1.380       .  A
C1077      C1573   1.475       .  S
C1078      H1080   1.082       .  S
O1081     Cu1089   2.044       .  S
O1081      C1091   1.281       .  A
O1082     Cu1089   2.047   1_545  S
O1082      C1092   1.281       .  A
O1083     Cu1089   2.043       .  S
O1083      C1093   1.281       .  A
O1084     Cu1089   2.047   1_455  S
O1084      C1094   1.281       .  A
O1085     Cu1090   1.973   1_455  S
O1085      C1094   1.274       .  A
O1086     Cu1090   1.972       .  S
O1086      C1093   1.274       .  A
O1087     Cu1090   1.975   1_545  S
O1087      C1092   1.274       .  A
O1088     Cu1090   1.975       .  S
O1088      C1091   1.275       .  A
Cu1089    Cu1090   2.373       .  S
C1093      C1364   1.470       .  S
O1095     Cu1103   1.966       .  S
O1095      C1105   1.273       .  A
O1096     Cu1103   1.965   1_545  S
O1096      C1106   1.273       .  A
O1097     Cu1103   1.971   1_556  S
O1097      C1107   1.274       .  A
O1098     Cu1103   1.971       .  S
O1098      C1108   1.274       .  A
O1099     Cu1104   2.043       .  S
O1099      C1108   1.281       .  A
O1100     Cu1104   2.046   1_556  S
O1100      C1107   1.281       .  A
O1101     Cu1104   2.040   1_545  S
O1101      C1106   1.281       .  A
O1102     Cu1104   2.043       .  S
O1102      C1105   1.281       .  A
Cu1103    Cu1104   2.374       .  S
O1109     Cu1117   2.044       .  S
O1109      C1119   1.281       .  A
O1110     Cu1117   2.046   1_556  S
O1110      C1120   1.281       .  A
O1111     Cu1117   2.045       .  S
O1111      C1121   1.281       .  A
O1112     Cu1117   2.048   1_455  S
O1112      C1122   1.281       .  A
O1113     Cu1118   1.972   1_455  S
O1113      C1122   1.274       .  A
O1114     Cu1118   1.971       .  S
O1114      C1121   1.274       .  A
O1115     Cu1118   1.973   1_556  S
O1115      C1120   1.274       .  A
O1116     Cu1118   1.974       .  S
O1116      C1119   1.274       .  A
Cu1117    Cu1118   2.373       .  S
C1121      C1316   1.470       .  S
N1123      N1124   1.318       .  A
N1123      C1127   1.353       .  A
N1123     Cu1131   2.086       .  S
N1124      C1125   1.337       .  A
N1124     Cu1130   2.045       .  S
C1125      C1126   1.379       .  A
C1125      H1128   1.082       .  S
C1126      C1127   1.391       .  A
C1126      C1210   1.472       .  S
C1127      H1129   1.082       .  S
Cu1130     N1133   2.045       .  S
Cu1131     N1141   2.091       .  S
Cu1132     N1134   2.097       .  S
Cu1132     N1140   2.102       .  S
N1133      N1134   1.319       .  A
N1133      C1137   1.334       .  A
N1134      C1135   1.357       .  A
C1135      C1136   1.394       .  A
C1135      H1138   1.082       .  S
C1136      C1137   1.377       .  A
C1136      C1184   1.475       .  S
C1137      H1139   1.082       .  S
N1140      N1141   1.327       .  A
N1140      C1144   1.346       .  A
N1141      C1142   1.346       .  A
C1142      C1143   1.386       .  A
C1142      H1145   1.078       .  S
C1143      C1144   1.388       .  A
C1143      C1554   1.493       .  S
C1144      H1146   1.082       .  S
N1147      N1148   1.318       .  A
N1147      C1151   1.355       .  A
N1147     Cu1155   2.095       .  S
N1148      C1149   1.334       .  A
N1148     Cu1154   2.032       .  S
C1149      C1150   1.376       .  A
C1149      H1152   1.082       .  S
C1150      C1151   1.394       .  A
C1150      C1240   1.471       .  S
C1151      H1153   1.082       .  S
Cu1154     N1157   2.031       .  S
Cu1155     N1165   2.100       .  S
Cu1156     N1158   2.091       .  S
Cu1156     N1164   2.096       .  S
N1157      N1158   1.318       .  A
N1157      C1161   1.334       .  A
N1158      C1159   1.354       .  A
C1159      C1160   1.393       .  A
C1159      H1162   1.082       .  S
C1160      C1161   1.375       .  A
C1160      C1198   1.469       .  S
C1161      H1163   1.082       .  S
N1164      N1165   1.328       .  A
N1164      C1168   1.346       .  A
N1165      C1166   1.346       .  A
C1166      C1167   1.387       .  A
C1166      H1169   1.082       .  S
C1167      C1168   1.387       .  A
C1167      C1557   1.492       .  S
C1168      H1170   1.078       .  S
O1171     Cu1179   2.049       .  S
O1171      C1181   1.281       .  A
O1172     Cu1179   2.048       .  S
O1172      C1182   1.282       .  A
O1173     Cu1179   2.039       .  S
O1173      C1183   1.280       .  A
O1174     Cu1179   2.052   1_455  S
O1174      C1184   1.281       .  A
O1175     Cu1180   1.973   1_455  S
O1175      C1184   1.274       .  A
O1176     Cu1180   1.974       .  S
O1176      C1183   1.274       .  A
O1177     Cu1180   1.973       .  S
O1177      C1182   1.274       .  A
O1178     Cu1180   1.973       .  S
O1178      C1181   1.274       .  A
Cu1179    Cu1180   2.373       .  S
C1183      C1268   1.468       .  S
O1185     Cu1193   1.957       .  S
O1185      C1195   1.271       .  A
O1186     Cu1193   1.957       .  S
O1186      C1196   1.270       .  A
O1187     Cu1193   1.985   1_556  S
O1187      C1197   1.277       .  A
O1188     Cu1193   1.984       .  S
O1188      C1198   1.276       .  A
O1189     Cu1194   2.032       .  S
O1189      C1198   1.278       .  A
O1190     Cu1194   2.029   1_556  S
O1190      C1197   1.278       .  A
O1191     Cu1194   2.061       .  S
O1191      C1196   1.284       .  A
O1192     Cu1194   2.063       .  S
O1192      C1195   1.284       .  A
Cu1193    Cu1194   2.373       .  S
O1199     Cu1207   2.045       .  S
O1199      C1209   1.281       .  A
O1200     Cu1207   2.042       .  S
O1200      C1210   1.281       .  A
O1201     Cu1207   2.042       .  S
O1201      C1211   1.280       .  A
O1202     Cu1207   2.041       .  S
O1202      C1212   1.280       .  A
O1203     Cu1208   1.981       .  S
O1203      C1212   1.275       .  A
O1204     Cu1208   1.982       .  S
O1204      C1211   1.275       .  A
O1205     Cu1208   1.980       .  S
O1205      C1210   1.275       .  A
O1206     Cu1208   1.981       .  S
O1206      C1209   1.275       .  A
Cu1207    Cu1208   2.373       .  S
O1213     Cu1221   1.975       .  S
O1213      C1223   1.274       .  A
O1214     Cu1221   1.974       .  S
O1214      C1224   1.274       .  A
O1215     Cu1221   1.976       .  S
O1215      C1225   1.275       .  A
O1216     Cu1221   1.977       .  S
O1216      C1226   1.275       .  A
O1217     Cu1222   2.043       .  S
O1217      C1226   1.280       .  A
O1218     Cu1222   2.033       .  S
O1218      C1225   1.279       .  A
O1219     Cu1222   2.044       .  S
O1219      C1224   1.281       .  A
O1220     Cu1222   2.041       .  S
O1220      C1223   1.281       .  A
Cu1221    Cu1222   2.374       .  S
C1225      C1426   1.467       .  S
O1227     Cu1235   2.044       .  S
O1227      C1237   1.281       .  A
O1228     Cu1235   2.041       .  S
O1228      C1238   1.281       .  A
O1229     Cu1235   2.029       .  S
O1229      C1239   1.279       .  A
O1230     Cu1235   2.040       .  S
O1230      C1240   1.280       .  A
O1231     Cu1236   1.978       .  S
O1231      C1240   1.275       .  A
O1232     Cu1236   1.978       .  S
O1232      C1239   1.275       .  A
O1233     Cu1236   1.974       .  S
O1233      C1238   1.274       .  A
O1234     Cu1236   1.974       .  S
O1234      C1237   1.274       .  A
Cu1235    Cu1236   2.374       .  S
C1239      C1254   1.466       .  S
N1241      N1242   1.318       .  A
N1241      C1245   1.352       .  A
N1241     Cu1249   2.072       .  S
N1242      C1243   1.332       .  A
N1242     Cu1248   2.035       .  S
C1243      C1244   1.376       .  A
C1243      H1246   1.082       .  S
C1244      C1245   1.389       .  A
C1244      C1300   1.463       .  S
C1245      H1247   1.082       .  S
Cu1248     N1251   2.035       .  S
Cu1249     N1259   2.077       .  S
Cu1250     N1252   2.079       .  S
Cu1250     N1258   2.084       .  S
N1251      N1252   1.318       .  A
N1251      C1255   1.335       .  A
N1252      C1253   1.352       .  A
C1253      C1254   1.390       .  A
C1253      H1256   1.082       .  S
C1254      C1255   1.376       .  A
C1255      H1257   1.082       .  S
N1258      N1259   1.327       .  A
N1258      C1262   1.344       .  A
N1259      C1260   1.342       .  A
C1260      C1261   1.381       .  A
C1260      H1263   1.082       .  S
C1261      C1262   1.384       .  A
C1261      C1541   1.480       .  S
C1262      H1264   1.079       .  S
N1265      N1266   1.318       .  A
N1265      C1269   1.352       .  A
N1265     Cu1273   2.076       .  S
N1266      C1267   1.336       .  A
N1266     Cu1272   2.047       .  S
C1267      C1268   1.379       .  A
C1267      H1270   1.082       .  S
C1268      C1269   1.389       .  A
C1269      H1271   1.082       .  S
Cu1272     N1275   2.047       .  S
Cu1273     N1283   2.080       .  S
Cu1274     N1276   2.077       .  S
Cu1274     N1282   2.082       .  S
N1275      N1276   1.319       .  A
N1275      C1279   1.334       .  A
N1276      C1277   1.354       .  A
C1277      C1278   1.390       .  A
C1277      H1280   1.082       .  S
C1278      C1279   1.378       .  A
C1278      C1485   1.468       .  S
C1279      H1281   1.082       .  S
N1282      N1283   1.326       .  A
N1282      C1286   1.343       .  A
N1283      C1284   1.344       .  A
C1284      C1285   1.383       .  A
C1284      H1287   1.079       .  S
C1285      C1286   1.383       .  A
C1285      C1538   1.480       .  S
C1286      H1288   1.082       .  S
O1289     Cu1297   2.038   1_556  S
O1289      C1299   1.280       .  A
O1290     Cu1297   2.038       .  S
O1290      C1300   1.280       .  A
O1291     Cu1297   2.036       .  S
O1291      C1301   1.280       .  A
O1292     Cu1297   2.035       .  S
O1292      C1302   1.280       .  A
O1293     Cu1298   1.985       .  S
O1293      C1302   1.276       .  A
O1294     Cu1298   1.984       .  S
O1294      C1301   1.275       .  A
O1295     Cu1298   1.959       .  S
O1295      C1300   1.272       .  A
O1296     Cu1298   1.962   1_556  S
O1296      C1299   1.273       .  A
Cu1297    Cu1298   2.375       .  S
C1301      C1330   1.470       .  S
N1303      N1304   1.319       .  A
N1303      C1307   1.354       .  A
N1303     Cu1311   2.085       .  S
N1304      C1305   1.336       .  A
N1304     Cu1310   2.050       .  S
C1305      C1306   1.379       .  A
C1305      H1308   1.082       .  S
C1306      C1307   1.391       .  A
C1306      C1410   1.472       .  S
C1307      H1309   1.082       .  S
Cu1310     N1313   2.050       .  S
Cu1311     N1321   2.089       .  S
Cu1312     N1314   2.082       .  S
Cu1312     N1320   2.087       .  S
N1313      N1314   1.319       .  A
N1313      C1317   1.336       .  A
N1314      C1315   1.353       .  A
C1315      C1316   1.390       .  A
C1315      H1318   1.082       .  S
C1316      C1317   1.379       .  A
C1317      H1319   1.082       .  S
N1320      N1321   1.326       .  A
N1320      C1324   1.345       .  A
N1321      C1322   1.344       .  A
C1322      C1323   1.385       .  A
C1322      H1325   1.078       .  S
C1323      C1324   1.385       .  A
C1323      C1522   1.487       .  S
C1324      H1326   1.082       .  S
N1327      N1328   1.318       .  A
N1327      C1331   1.352       .  A
N1327     Cu1335   2.082       .  S
N1328      C1329   1.338       .  A
N1328     Cu1334   2.046       .  S
C1329      C1330   1.379       .  A
C1329      H1332   1.082       .  S
C1330      C1331   1.390       .  A
C1331      H1333   1.082       .  S
Cu1334     N1337   2.045       .  S
Cu1335     N1345   2.086       .  S
Cu1336     N1338   2.089       .  S
Cu1336     N1344   2.094       .  S
N1337      N1338   1.319       .  A
N1337      C1341   1.333       .  A
N1338      C1339   1.357       .  A
C1339      C1340   1.393       .  A
C1339      H1342   1.082       .  S
C1340      C1341   1.377       .  A
C1341      H1343   1.082       .  S
N1344      N1345   1.327       .  A
N1344      C1348   1.344       .  A
N1345      C1346   1.345       .  A
C1346      C1347   1.385       .  A
C1346      H1349   1.078       .  S
C1347      C1348   1.386       .  A
C1347      C1525   1.488       .  S
C1348      H1350   1.082       .  S
N1351      N1352   1.319       .  A
N1351      C1355   1.354       .  A
N1351     Cu1359   2.086       .  S
N1352      C1353   1.335       .  A
N1352     Cu1358   2.046       .  S
C1353      C1354   1.379       .  A
C1353      H1356   1.082       .  S
C1354      C1355   1.391       .  A
C1354      C1411   1.472       .  S
C1355      H1357   1.082       .  S
Cu1358     N1361   2.046       .  S
Cu1359     N1369   2.091       .  S
Cu1360     N1362   2.083       .  S
Cu1360     N1368   2.087       .  S
N1361      N1362   1.319       .  A
N1361      C1365   1.335       .  A
N1362      C1363   1.354       .  A
C1363      C1364   1.390       .  A
C1363      H1366   1.082       .  S
C1364      C1365   1.378       .  A
C1365      H1367   1.082       .  S
N1368      N1369   1.327       .  A
N1368      C1372   1.345       .  A
N1369      C1370   1.345       .  A
C1370      C1371   1.386       .  A
C1370      H1373   1.078       .  S
C1371      C1372   1.385       .  A
C1371      C1506   1.488       .  S
C1372      H1374   1.082       .  S
N1375      N1376   1.318       .  A
N1375      C1379   1.352       .  A
N1375     Cu1383   2.081       .  S
N1376      C1377   1.337       .  A
N1376     Cu1382   2.045       .  S
C1377      C1378   1.379       .  A
C1377      H1380   1.082       .  S
C1378      C1379   1.390       .  A
C1378      C1473   1.469       .  S
C1379      H1381   1.082       .  S
Cu1382     N1385   2.044       .  S
Cu1383     N1393   2.086       .  S
Cu1384     N1386   2.090       .  S
Cu1384     N1392   2.095       .  S
N1385      N1386   1.319       .  A
N1385      C1389   1.333       .  A
N1386      C1387   1.357       .  A
C1387      C1388   1.393       .  A
C1387      H1390   1.082       .  S
C1388      C1389   1.377       .  A
C1389      H1391   1.082       .  S
N1392      N1393   1.327       .  A
N1392      C1396   1.344       .  A
N1393      C1394   1.345       .  A
C1394      C1395   1.386       .  A
C1394      H1397   1.078       .  S
C1395      C1396   1.386       .  A
C1395      C1509   1.489       .  S
C1396      H1398   1.082       .  S
O1399     Cu1407   1.973       .  S
O1399      C1409   1.274       .  A
O1400     Cu1407   1.974   1_545  S
O1400      C1410   1.274       .  A
O1401     Cu1407   1.973       .  S
O1401      C1411   1.274       .  A
O1402     Cu1407   1.973   1_556  S
O1402      C1412   1.274       .  A
O1403     Cu1408   2.046   1_556  S
O1403      C1412   1.281       .  A
O1404     Cu1408   2.048       .  S
O1404      C1411   1.281       .  A
O1405     Cu1408   2.048   1_545  S
O1405      C1410   1.282       .  A
O1406     Cu1408   2.052       .  S
O1406      C1409   1.282       .  A
Cu1407    Cu1408   2.372       .  S
N1413      N1414   1.318       .  A
N1413      C1417   1.353       .  A
N1413     Cu1421   2.079       .  S
N1414      C1415   1.333       .  A
N1414     Cu1420   2.040       .  S
C1415      C1416   1.377       .  A
C1415      H1418   1.082       .  S
C1416      C1417   1.390       .  A
C1416      C1472   1.467       .  S
C1417      H1419   1.082       .  S
Cu1420     N1423   2.040       .  S
Cu1421     N1431   2.085       .  S
Cu1422     N1424   2.078       .  S
Cu1422     N1430   2.083       .  S
N1423      N1424   1.318       .  A
N1423      C1427   1.335       .  A
N1424      C1425   1.352       .  A
C1425      C1426   1.389       .  A
C1425      H1428   1.082       .  S
C1426      C1427   1.377       .  A
C1427      H1429   1.082       .  S
N1430      N1431   1.326       .  A
N1430      C1434   1.344       .  A
N1431      C1432   1.343       .  A
C1432      C1433   1.385       .  A
C1432      H1435   1.082       .  S
C1433      C1434   1.385       .  A
C1433      C1490   1.486       .  S
C1434      H1436   1.078       .  S
N1437      N1438   1.318       .  A
N1437      C1441   1.352       .  A
N1437     Cu1445   2.076       .  S
N1438      C1439   1.336       .  A
N1438     Cu1444   2.047       .  S
C1439      C1440   1.379       .  A
C1439      H1442   1.082       .  S
C1440      C1441   1.389       .  A
C1441      H1443   1.082       .  S
Cu1444     N1447   2.046       .  S
Cu1445     N1455   2.080       .  S
Cu1446     N1448   2.082       .  S
Cu1446     N1454   2.087       .  S
N1447      N1448   1.319       .  A
N1447      C1451   1.334       .  A
N1448      C1449   1.354       .  A
C1449      C1450   1.390       .  A
C1449      H1452   1.082       .  S
C1450      C1451   1.378       .  A
C1450      C1488   1.469       .  S
C1451      H1453   1.082       .  S
N1454      N1455   1.326       .  A
N1454      C1458   1.344       .  A
N1455      C1456   1.343       .  A
C1456      C1457   1.385       .  A
C1456      H1459   1.078       .  S
C1457      C1458   1.386       .  A
C1457      C1493   1.486       .  S
C1458      H1460   1.082       .  S
O1461     Cu1469   1.964       .  S
O1461      C1471   1.273       .  A
O1462     Cu1469   1.963   1_545  S
O1462      C1472   1.273       .  A
O1463     Cu1469   1.984       .  S
O1463      C1473   1.275       .  A
O1464     Cu1469   1.983       .  S
O1464      C1474   1.275       .  A
O1465     Cu1470   2.034       .  S
O1465      C1474   1.279       .  A
O1466     Cu1470   2.034       .  S
O1466      C1473   1.280       .  A
O1467     Cu1470   2.043   1_545  S
O1467      C1472   1.281       .  A
O1468     Cu1470   2.042       .  S
O1468      C1471   1.281       .  A
Cu1469    Cu1470   2.375       .  S
O1475     Cu1483   2.046       .  S
O1475      C1485   1.281       .  A
O1476     Cu1483   2.044       .  S
O1476      C1486   1.281       .  A
O1477     Cu1483   2.049       .  S
O1477      C1487   1.281       .  A
O1478     Cu1483   2.045       .  S
O1478      C1488   1.281       .  A
O1479     Cu1484   1.967       .  S
O1479      C1488   1.273       .  A
O1480     Cu1484   1.966       .  S
O1480      C1487   1.273       .  A
O1481     Cu1484   1.963       .  S
O1481      C1486   1.273       .  A
O1482     Cu1484   1.963       .  S
O1482      C1485   1.273       .  A
Cu1483    Cu1484   2.373       .  S
C1489      C1490   1.404       .  A
C1489      C1494   1.403       .  A
C1489      H1496   1.084       .  S
C1490      C1491   1.417       .  A
C1491      C1492   1.403       .  A
C1491      C1498   1.507       .  S
C1492      C1493   1.404       .  A
C1492      H1497   1.084       .  S
C1493      C1494   1.417       .  A
C1494      C1495   1.507       .  S
C1495      H1499   1.111       .  S
C1495      H1500   1.110       .  S
C1495      H1501   1.107       .  S
C1498      H1502   1.107       .  S
C1498      H1503   1.110       .  S
C1498      H1504   1.111       .  S
C1505      C1506   1.405       .  A
C1505      C1510   1.405       .  A
C1505      H1512   1.084       .  S
C1506      C1507   1.417       .  A
C1507      C1508   1.403       .  A
C1507      C1514   1.507       .  S
C1508      C1509   1.404       .  A
C1508      H1513   1.084       .  S
C1509      C1510   1.418       .  A
C1510      C1511   1.507       .  S
C1511      H1515   1.111   1_565  S
C1511      H1516   1.107       .  S
C1511      H1517   1.110   1_565  S
C1514      H1518   1.110       .  S
C1514      H1519   1.107       .  S
C1514      H1520   1.111       .  S
C1521      C1522   1.405       .  A
C1521      C1526   1.405       .  A
C1521      H1528   1.084       .  S
C1522      C1523   1.416       .  A
C1523      C1524   1.403       .  A
C1523      C1530   1.508       .  S
C1524      C1525   1.404       .  A
C1524      H1529   1.084       .  S
C1525      C1526   1.417       .  A
C1526      C1527   1.507       .  S
C1527      H1531   1.111   1_554  S
C1527      H1532   1.107       .  S
C1527      H1533   1.110   1_554  S
C1530      H1534   1.110       .  S
C1530      H1535   1.107       .  S
C1530      H1536   1.111       .  S
C1537      C1538   1.403       .  A
C1537      C1542   1.402       .  A
C1537      H1544   1.084       .  S
C1538      C1539   1.415       .  A
C1539      C1540   1.402       .  A
C1539      C1546   1.508       .  S
C1540      C1541   1.404       .  A
C1540      H1545   1.084       .  S
C1541      C1542   1.415       .  A
C1542      C1543   1.508       .  S
C1543      H1547   1.111       .  S
C1543      H1548   1.107       .  S
C1543      H1549   1.110       .  S
C1546      H1550   1.110       .  S
C1546      H1551   1.107       .  S
C1546      H1552   1.111       .  S
C1553      C1554   1.405       .  A
C1553      C1558   1.406       .  A
C1553      H1560   1.084       .  S
C1554      C1555   1.419       .  A
C1555      C1556   1.407       .  A
C1555      C1562   1.507       .  S
C1556      C1557   1.405       .  A
C1556      H1561   1.084       .  S
C1557      C1558   1.418       .  A
C1558      C1559   1.507       .  S
C1559      H1563   1.111       .  S
C1559      H1564   1.107       .  S
C1559      H1565   1.110       .  S
C1562      H1566   1.110       .  S
C1562      H1567   1.107       .  S
C1562      H1568   1.111       .  S
C1569      C1570   1.401       .  A
C1569      C1574   1.403       .  A
C1569      H1576   1.084   1_655  S
C1570      C1571   1.413       .  A
C1571      C1572   1.405       .  A
C1571      C1578   1.506       .  S
C1572      C1573   1.402       .  A
C1572      H1577   1.084       .  S
C1573      C1574   1.413       .  A
C1574      C1575   1.507   1_655  S
C1575      H1579   1.111       .  S
C1575      H1580   1.111       .  S
C1575      H1581   1.109       .  S
C1578      H1582   1.109       .  S
C1578      H1583   1.111       .  S
C1578      H1584   1.111       .  S
C1585      C1586   1.404       .  A
C1585      C1590   1.403       .  A
C1585      H1592   1.084       .  S
C1586      C1587   1.417       .  A
C1587      C1588   1.404       .  A
C1587      C1594   1.507       .  S
C1588      C1589   1.404       .  A
C1588      H1593   1.084       .  S
C1589      C1590   1.417       .  A
C1590      C1591   1.507       .  S
C1591      H1595   1.111   1_565  S
C1591      H1596   1.107       .  S
C1591      H1597   1.110   1_565  S
C1594      H1598   1.110       .  S
C1594      H1599   1.107       .  S
C1594      H1600   1.111       .  S
C1601      C1602   1.402       .  A
C1601      C1606   1.402       .  A
C1601      H1608   1.084   1_554  S
C1602      C1603   1.414       .  A
C1603      C1604   1.402       .  A
C1603      C1610   1.508       .  S
C1604      C1605   1.401       .  A
C1604      H1609   1.084       .  S
C1605      C1606   1.414       .  A
C1606      C1607   1.508   1_554  S
C1607      H1611   1.111       .  S
C1607      H1612   1.110       .  S
C1607      H1613   1.107       .  S
C1610      H1614   1.107       .  S
C1610      H1615   1.110       .  S
C1610      H1616   1.111       .  S
C1617      C1618   1.405       .  A
C1617      C1622   1.406       .  A
C1617      H1624   1.084       .  S
C1618      C1619   1.419       .  A
C1619      C1620   1.406       .  A
C1619      C1626   1.507       .  S
C1620      C1621   1.405       .  A
C1620      H1625   1.084       .  S
C1621      C1622   1.418       .  A
C1622      C1623   1.507       .  S
C1623      H1627   1.111       .  S
C1623      H1628   1.107       .  S
C1623      H1629   1.110       .  S
C1626      H1630   1.110       .  S
C1626      H1631   1.107       .  S
C1626      H1632   1.111       .  S
C1633      C1634   1.403       .  A
C1633      C1638   1.404       .  A
C1633      H1640   1.084       .  S
C1634      C1635   1.415       .  A
C1635      C1636   1.404       .  A
C1635      C1642   1.507       .  S
C1636      C1637   1.403       .  A
C1636      H1641   1.084       .  S
C1637      C1638   1.416       .  A
C1638      C1639   1.508       .  S
C1639      H1643   1.111       .  S
C1639      H1644   1.110       .  S
C1639      H1645   1.107       .  S
C1642      H1646   1.107       .  S
C1642      H1647   1.110       .  S
C1642      H1648   1.111       .  S
C1649      C1650   1.404       .  A
C1649      C1654   1.405       .  A
C1649      H1656   1.084       .  S
C1650      C1651   1.418       .  A
C1651      C1652   1.406       .  A
C1651      C1658   1.507       .  S
C1652      C1653   1.405       .  A
C1652      H1657   1.084       .  S
C1653      C1654   1.418       .  A
C1654      C1655   1.507       .  S
C1655      H1659   1.111       .  S
C1655      H1660   1.107       .  S
C1655      H1661   1.110       .  S
C1658      H1662   1.110       .  S
C1658      H1663   1.107       .  S
C1658      H1664   1.111       .  S
C1665      C1666   1.404       .  A
C1665      C1670   1.404       .  A
C1665      H1672   1.084       .  S
C1666      C1667   1.416       .  A
C1667      C1668   1.405       .  A
C1667      C1674   1.507       .  S
C1668      C1669   1.404       .  A
C1668      H1673   1.084       .  S
C1669      C1670   1.417       .  A
C1670      C1671   1.508   1_655  S
C1671      H1675   1.111       .  S
C1671      H1676   1.110       .  S
C1671      H1677   1.107   1_455  S
C1674      H1678   1.107       .  S
C1674      H1679   1.110       .  S
C1674      H1680   1.111       .  S
C1681      C1682   1.404       .  A
C1681      C1686   1.403       .  A
C1681      H1688   1.083       .  S
C1682      C1683   1.418       .  A
C1683      C1684   1.404       .  A
C1683      C1690   1.507       .  S
C1684      C1685   1.404       .  A
C1684      H1689   1.084       .  S
C1685      C1686   1.418       .  A
C1686      C1687   1.507       .  S
C1687      H1691   1.111       .  S
C1687      H1692   1.110       .  S
C1687      H1693   1.107       .  S
C1690      H1694   1.107       .  S
C1690      H1695   1.110   1_554  S
C1690      H1696   1.111   1_554  S
C1697      C1698   1.403       .  A
C1697      C1702   1.405       .  A
C1697      H1704   1.084       .  S
C1698      C1699   1.414       .  A
C1699      C1700   1.403       .  A
C1699      C1706   1.507       .  S
C1700      C1701   1.402       .  A
C1700      H1705   1.084       .  S
C1701      C1702   1.414       .  A
C1702      C1703   1.507       .  S
C1703      H1707   1.111       .  S
C1703      H1708   1.110       .  S
C1703      H1709   1.108       .  S
C1706      H1710   1.108       .  S
C1706      H1711   1.111       .  S
C1706      H1712   1.111       .  S
C1713      C1714   1.405       .  A
C1713      C1718   1.406       .  A
C1713      H1720   1.084       .  S
C1714      C1715   1.417       .  A
C1715      C1716   1.406       .  A
C1715      C1722   1.507       .  S
C1716      C1717   1.405       .  A
C1716      H1721   1.084       .  S
C1717      C1718   1.418       .  A
C1718      C1719   1.507       .  S
C1719      H1723   1.111       .  S
C1719      H1724   1.107       .  S
C1719      H1725   1.110       .  S
C1722      H1726   1.110       .  S
C1722      H1727   1.107       .  S
C1722      H1728   1.111       .  S
C1729      C1730   1.404       .  A
C1729      C1734   1.403       .  A
C1729      H1736   1.084       .  S
C1730      C1731   1.416       .  A
C1731      C1732   1.403       .  A
C1731      C1738   1.508   1_565  S
C1732      C1733   1.403       .  A
C1732      H1737   1.084       .  S
C1733      C1734   1.416       .  A
C1734      C1735   1.507       .  S
C1735      H1739   1.111       .  S
C1735      H1740   1.107       .  S
C1735      H1741   1.110       .  S
C1738      H1742   1.110       .  S
C1738      H1743   1.107   1_545  S
C1738      H1744   1.111       .  S
C1745      C1746   1.402       .  A
C1745      C1750   1.403       .  A
C1745      H1752   1.084   1_655  S
C1746      C1747   1.413       .  A
C1747      C1748   1.405       .  A
C1747      C1754   1.507       .  S
C1748      C1749   1.403       .  A
C1748      H1753   1.084       .  S
C1749      C1750   1.413       .  A
C1750      C1751   1.507   1_655  S
C1751      H1755   1.111       .  S
C1751      H1756   1.111       .  S
C1751      H1757   1.108       .  S
C1754      H1758   1.108       .  S
C1754      H1759   1.110       .  S
C1754      H1760   1.111       .  S
C1761      C1762   1.402       .  A
C1761      C1766   1.402       .  A
C1761      H1768   1.084       .  S
C1762      C1763   1.415       .  A
C1763      C1764   1.405       .  A
C1763      C1770   1.507       .  S
C1764      C1765   1.403       .  A
C1764      H1769   1.084       .  S
C1765      C1766   1.414       .  A
C1766      C1767   1.508       .  S
C1767      H1771   1.111       .  S
C1767      H1772   1.107       .  S
C1767      H1773   1.110       .  S
C1770      H1774   1.110       .  S
C1770      H1775   1.108       .  S
C1770      H1776   1.111       .  S
C1777      C1778   1.402       .  A
C1777      C1782   1.405       .  A
C1777      H1784   1.084       .  S
C1778      C1779   1.411   1_655  A
C1779      C1780   1.404   1_455  A
C1779      C1786   1.506       .  S
C1780      C1781   1.401       .  A
C1780      H1785   1.084   1_655  S
C1781      C1782   1.411       .  A
C1782      C1783   1.506       .  S
C1783      H1787   1.111       .  S
C1783      H1788   1.110       .  S
C1783      H1789   1.110       .  S
C1786      H1790   1.110       .  S
C1786      H1791   1.110       .  S
C1786      H1792   1.111       .  S
C1793      C1794   1.402       .  A
C1793      C1798   1.402       .  A
C1793      H1800   1.084       .  S
C1794      C1795   1.417       .  A
C1795      C1796   1.404       .  A
C1795      C1802   1.507       .  S
C1796      C1797   1.403       .  A
C1796      H1801   1.084       .  S
C1797      C1798   1.416       .  A
C1798      C1799   1.508   1_565  S
C1799      H1803   1.111       .  S
C1799      H1804   1.107   1_545  S
C1799      H1805   1.110       .  S
C1802      H1806   1.110       .  S
C1802      H1807   1.107       .  S
C1802      H1808   1.111       .  S
C1809      C1810   1.404       .  A
C1809      C1814   1.404       .  A
C1809      H1816   1.084       .  S
C1810      C1811   1.419       .  A
C1811      C1812   1.406       .  A
C1811      C1818   1.507       .  S
C1812      C1813   1.404       .  A
C1812      H1817   1.084       .  S
C1813      C1814   1.418       .  A
C1814      C1815   1.507       .  S
C1815      H1819   1.111       .  S
C1815      H1820   1.110       .  S
C1815      H1821   1.107       .  S
C1818      H1822   1.107       .  S
C1818      H1823   1.110   1_554  S
C1818      H1824   1.111   1_554  S
C1825      C1826   1.403       .  A
C1825      C1830   1.402       .  A
C1825      H1832   1.084       .  S
C1826      C1827   1.415       .  A
C1827      C1828   1.402       .  A
C1827      C1834   1.508       .  S
C1828      C1829   1.403       .  A
C1828      H1833   1.084       .  S
C1829      C1830   1.416       .  A
C1830      C1831   1.508       .  S
C1831      H1835   1.111       .  S
C1831      H1836   1.110       .  S
C1831      H1837   1.107       .  S
C1834      H1838   1.107       .  S
C1834      H1839   1.110       .  S
C1834      H1840   1.111       .  S
C1841      C1842   1.403       .  A
C1841      C1846   1.402       .  A
C1841      H1848   1.084       .  S
C1842      C1843   1.416       .  A
C1843      C1844   1.402       .  A
C1843      C1850   1.508       .  S
C1844      C1845   1.404       .  A
C1844      H1849   1.084       .  S
C1845      C1846   1.416       .  A
C1846      C1847   1.508       .  S
C1847      H1851   1.111       .  S
C1847      H1852   1.107       .  S
C1847      H1853   1.110       .  S
C1850      H1854   1.110       .  S
C1850      H1855   1.107       .  S
C1850      H1856   1.111       .  S
C1857      C1858   1.401       .  A
C1857      C1862   1.403       .  A
C1857      H1864   1.084       .  S
C1858      C1859   1.411       .  A
C1859      C1860   1.405       .  A
C1859      C1866   1.506       .  S
C1860      C1861   1.402       .  A
C1860      H1865   1.084       .  S
C1861      C1862   1.411       .  A
C1862      C1863   1.506       .  S
C1863      H1867   1.111       .  S
C1863      H1868   1.110       .  S
C1863      H1869   1.110       .  S
C1866      H1870   1.110       .  S
C1866      H1871   1.111       .  S
C1866      H1872   1.111       .  S
