geometry optimzed in LAMMPS
_audit_creation_date              2020-11-30 
_audit_creation_method            'lammps2cif' 
_symmetry_space_group_name_H-M    'P1' 
_symmetry_Int_Tables_number       1 
_symmetry_cell_setting            triclinic 
loop_ 
_symmetry_equiv_pos_as_xyz 
  x,y,z 
_cell_length_a                    38.95311415761224 
_cell_length_b                    64.53185143163009 
_cell_length_c                    44.46521182784118 
_cell_angle_alpha                 89.92185250581558 
_cell_angle_beta                  90.3590757792302 
_cell_angle_gamma                 90.03272944323666 
loop_ 
_atom_site_label 
_atom_site_type_symbol 
_atom_site_fract_x 
_atom_site_fract_y 
_atom_site_fract_z 
_atom_site_charge 
O1          O  0.27669655  0.03087530  0.50086915    -0.73190
O2          O  0.27659979  0.96864629  0.50030395    -0.74170
O3          O  0.27747392  0.99995722  0.45542249    -0.62790
O4          O  0.27587376  0.99950963  0.04578764    -0.71200
O5          O  0.21911125  0.99972331  0.04461553    -0.70750
O6          O  0.22075506  0.99998494  0.45440888    -0.62000
O7          O  0.21988191  0.96875252  0.99941801    -0.74510
O8          O  0.22001100  0.03088805  0.99963012    -0.73290
Cu9        Cu  0.27863916  0.99975154  0.50063685     1.04560
Cu10       Cu  0.21800656  0.99983485  0.99948104     1.04330
C11         C  0.24831467  0.04083322  0.50033951     0.93010
C12         C  0.24814285  0.95875984  0.99970600     0.92150
C13         C  0.24937577  0.00008480  0.44048856     0.84300
C14         C  0.24717024  0.99946188  0.05959153     0.90570
O15         O  0.27628568  0.03080349  0.25064777    -0.73190
O16         O  0.27480687  0.96855505  0.25014792    -0.74170
O17         O  0.27638618  0.99985695  0.20533166    -0.62790
O18         O  0.27490123  0.99944917  0.29552413    -0.71200
O19         O  0.21817626  0.99991803  0.29457665    -0.70750
O20         O  0.21961595  0.00038400  0.20419864    -0.62000
O21         O  0.21799620  0.96905566  0.24908066    -0.74510
O22         O  0.21951399  0.03115736  0.24972215    -0.73290
Cu23       Cu  0.27755628  0.99964892  0.25045173     1.04560
Cu24       Cu  0.21686410  0.00014081  0.24936033     1.04330
C25         C  0.24809153  0.04089171  0.25038123     0.93010
C26         C  0.24612510  0.95891781  0.24935730     0.92150
C27         C  0.24831661  0.00029062  0.19038135     0.84300
C28         C  0.24630222  0.99957582  0.30947341     0.90570
N29         N  0.31936267  0.22049257  0.00173605    -0.27530
N30         N  0.30248377  0.23823525  0.50052659    -0.35390
C31         C  0.32524955  0.25391261  0.49976336     0.00810
C32         C  0.35794905  0.24554321  0.00042519     0.06830
C33         C  0.35325454  0.22434005  0.50160378    -0.06270
H34         H  0.31846111  0.27015706  0.49884583     0.07500
H35         H  0.37295501  0.21254497  0.50254520     0.08700
Cu36       Cu  0.24934122  0.23997873  0.49997059     0.44170
Cu37       Cu  0.29576540  0.19186382  0.00377760     0.41990
Cu38       Cu  0.20359252  0.19055606  0.99713398     0.43880
N39         N  0.19630771  0.23717041  0.99954311    -0.34920
N40         N  0.17966448  0.21929844  0.99870293    -0.29170
C41         C  0.14568433  0.22304538  0.99878117    -0.05270
C42         C  0.14078508  0.24426407  0.99954438     0.06940
C43         C  0.17338624  0.25273082  0.50002025     0.00740
H44         H  0.12605936  0.21118883  0.99805379     0.08390
H45         H  0.18004223  0.26900408  0.50059077     0.07470
N46         N  0.23407086  0.16415499  0.99834456    -0.36370
N47         N  0.26757147  0.16476508  0.00247845    -0.28550
C48         C  0.27975057  0.14534629  0.00436819    -0.03790
C49         C  0.25277157  0.13144667  0.00027106     0.04820
C50         C  0.22413679  0.14424641  0.99670066     0.02920
H51         H  0.30616969  0.14216790  0.00931770     0.08020
H52         H  0.19777985  0.13960481  0.99316346     0.06860
N53         N  0.17507091  0.21912879  0.25274246    -0.27530
N54         N  0.19166927  0.23695967  0.25099022    -0.35390
C55         C  0.16868095  0.25248074  0.24982316     0.00810
C56         C  0.13611925  0.24394883  0.25075340     0.06830
C57         C  0.14110442  0.22278862  0.25253537    -0.06270
H58         H  0.17524005  0.26874438  0.24841080     0.07500
H59         H  0.12156405  0.21091126  0.25383684     0.08700
Cu60       Cu  0.24473065  0.23930119  0.25007192     0.44170
Cu61       Cu  0.19911697  0.19061925  0.25520762     0.41990
Cu62       Cu  0.29105010  0.19047658  0.24659402     0.43880
N63         N  0.29780626  0.23706535  0.24923739    -0.34920
N64         N  0.31463833  0.21929249  0.24807756    -0.29170
C65         C  0.34855413  0.22318746  0.24811507    -0.05270
C66         C  0.35325628  0.24441496  0.24921954     0.06940
C67         C  0.32057166  0.25274169  0.24990095     0.00740
H68         H  0.36827662  0.21141206  0.24724526     0.08390
H69         H  0.31377105  0.26897966  0.25083129     0.07470
N70         N  0.26156107  0.16373261  0.24832605    -0.36370
N71         N  0.22811301  0.16385312  0.25289617    -0.28550
C72         C  0.21670135  0.14423145  0.25431554    -0.03790
C73         C  0.24413387  0.13095774  0.24956755     0.04820
C74         C  0.27224125  0.14398644  0.24620476     0.02920
H75         H  0.19043403  0.14014220  0.25917101     0.08020
H76         H  0.29860247  0.13947167  0.24244902     0.06860
N77         N  0.17997333  0.78050687  0.00250775    -0.27530
N78         N  0.19666092  0.76269468  0.00099392    -0.35390
C79         C  0.17378794  0.74709524  0.99999358     0.00810
C80         C  0.14116006  0.75548274  0.00083295     0.06830
C81         C  0.14600656  0.77669354  0.00238016    -0.06270
H82         H  0.18048952  0.73085508  0.99869828     0.07500
H83         H  0.12635232  0.78850369  0.00341630     0.08700
Cu84       Cu  0.24969947  0.76015661  0.00003052     0.44170
Cu85       Cu  0.20396545  0.80923583  0.00436116     0.41990
Cu86       Cu  0.29577376  0.80842147  0.99379131     0.43880
N87         N  0.30279875  0.76210293  0.99883890    -0.34920
N88         N  0.31958943  0.77983693  0.99659309    -0.29170
C89         C  0.35351071  0.77603327  0.99682184    -0.05270
C90         C  0.35828406  0.75487280  0.99916638     0.06940
C91         C  0.32561777  0.74649311  0.00038495     0.00740
H92         H  0.37317473  0.78782303  0.99531024     0.08390
H93         H  0.31888087  0.73028198  0.00232220     0.07470
N94         N  0.26728945  0.83538434  0.99649041    -0.36370
N95         N  0.23408217  0.83575534  0.00214208    -0.28550
C96         C  0.22394613  0.85558518  0.00456963    -0.03790
C97         C  0.25211672  0.86846501  0.00011446     0.04820
C98         C  0.27900558  0.85491792  0.99449235     0.02920
H99         H  0.19784781  0.86023024  0.00922138     0.08020
H100        H  0.30506504  0.85868027  0.98852141     0.06860
N101        N  0.17568163  0.78114404  0.25195203    -0.27530
N102        N  0.19229300  0.76329709  0.25070005    -0.35390
C103        C  0.16932881  0.74774941  0.24968985     0.00810
C104        C  0.13675227  0.75622716  0.25032896     0.06830
C105        C  0.14170614  0.77741632  0.25178602    -0.06270
H106        H  0.17593047  0.73149351  0.24840741     0.07500
H107        H  0.12212273  0.78928490  0.25240633     0.08700
Cu108      Cu  0.24533245  0.76067616  0.24989976     0.44170
Cu109      Cu  0.19963095  0.80983367  0.25296429     0.41990
Cu110      Cu  0.29176978  0.80900485  0.24540858     0.43880
N111        N  0.29845349  0.76255216  0.24894985    -0.34920
N112        N  0.31534790  0.78027936  0.24717357    -0.29170
C113        C  0.34924425  0.77639652  0.24742014    -0.05270
C114        C  0.35390486  0.75520386  0.24941680     0.06940
C115        C  0.32118504  0.74688212  0.25032611     0.00740
H116        H  0.36897887  0.78817030  0.24640800     0.08390
H117        H  0.31435320  0.73067297  0.25202232     0.07470
N118        N  0.26323864  0.83600497  0.24774381    -0.36370
N119        N  0.22962946  0.83635489  0.25142091    -0.28550
C120        C  0.21920635  0.85617089  0.25322942    -0.03790
C121        C  0.24766854  0.86897613  0.25075642     0.04820
C122        C  0.27505853  0.85556106  0.24681816     0.02920
H123        H  0.19280892  0.86089877  0.25621657     0.08020
H124        H  0.30158912  0.85957323  0.24290860     0.06860
N125        N  0.06985230  0.71897464  0.00061620    -0.27530
N126        N  0.05292087  0.73673548  0.00031559    -0.35390
C127        C  0.07562028  0.75245825  0.00024062     0.00810
C128        C  0.10835820  0.74417219  0.00044924     0.06830
C129        C  0.10374868  0.72292455  0.00064271    -0.06270
H130        H  0.06874203  0.76869920  0.00010767     0.07500
H131        H  0.12352889  0.71116554  0.00097897     0.08700
Cu132      Cu  0.49978669  0.73886829  0.00013312     0.44170
Cu133      Cu  0.04646288  0.69008462  0.00122722     0.41990
Cu134      Cu  0.45385438  0.69010207  0.99979946     0.43880
N135        N  0.44667278  0.73656926  0.00010966    -0.34920
N136        N  0.42995331  0.71873358  0.00018148    -0.29170
C137        C  0.39600360  0.72248209  0.00010973    -0.05270
C138        C  0.39115021  0.74369527  0.99988233     0.06940
C139        C  0.42378305  0.75216341  0.99989300     0.00740
H140        H  0.37637562  0.71061869  0.99994560     0.08390
H141        H  0.43045925  0.76843725  0.99965813     0.07470
N142        N  0.48315561  0.66336010  0.99944256    -0.36370
N143        N  0.01707254  0.66326797  0.00048802    -0.28550
C144        C  0.02813959  0.64351861  0.00035228    -0.03790
C145        C  0.49980737  0.63060840  0.99864001     0.04820
C146        C  0.47172640  0.64371950  0.99838335     0.02920
H147        H  0.05482673  0.63890354  0.00109059     0.08020
H148        H  0.44492567  0.63933249  0.99792201     0.06860
N149        N  0.06524778  0.72003529  0.24649524    -0.27530
N150        N  0.04841496  0.73773978  0.24874124    -0.35390
C151        C  0.07119912  0.75337864  0.25038712     0.00810
C152        C  0.10388153  0.74504886  0.24919947     0.06830
C153        C  0.09915368  0.72389074  0.24675878    -0.06270
H154        H  0.06442858  0.76956969  0.25244415     0.07500
H155        H  0.11884568  0.71212293  0.24537991     0.08700
Cu156      Cu  0.49531740  0.73960126  0.24996388     0.44170
Cu157      Cu  0.04157760  0.69138242  0.24405071     0.41990
Cu158      Cu  0.44975507  0.69042898  0.25425984     0.43880
N159        N  0.44229476  0.73694630  0.25099345    -0.34920
N160        N  0.42568810  0.71910000  0.25265549    -0.29170
C161        C  0.39170479  0.72282030  0.25243689    -0.05270
C162        C  0.38675807  0.74400417  0.25056563     0.06940
C163        C  0.41934344  0.75247842  0.24971075     0.00740
H164        H  0.37211213  0.71095623  0.25336472     0.08390
H165        H  0.42596234  0.76872377  0.24810015     0.07470
N166        N  0.47985496  0.66395304  0.25206231    -0.36370
N167        N  0.01318454  0.66436950  0.24690480    -0.28550
C168        C  0.02498943  0.64484784  0.24527847    -0.03790
C169        C  0.49797127  0.63132084  0.25048077     0.04820
C170        C  0.46966699  0.64411004  0.25435101     0.02920
H171        H  0.05121698  0.64100302  0.23993337     0.08020
H172        H  0.44349056  0.63936823  0.25853322     0.06860
N173        N  0.42982651  0.28158010  0.50129698    -0.27530
N174        N  0.44638909  0.26370647  0.50047813    -0.35390
C175        C  0.42337772  0.24817745  0.49996900     0.00810
C176        C  0.39083035  0.25670900  0.50041354     0.06830
C177        C  0.39584216  0.27790257  0.50122294    -0.06270
H178        H  0.42992666  0.23189460  0.49930870     0.07500
H179        H  0.37630180  0.28979678  0.50184530     0.08700
Cu180      Cu  0.99942706  0.26106100  0.49989890     0.44170
Cu181      Cu  0.45386907  0.31019847  0.50241495     0.41990
Cu182      Cu  0.04605259  0.30947213  0.49594789     0.43880
N183        N  0.05254987  0.26295158  0.49911114    -0.34920
N184        N  0.06949764  0.28068050  0.49771211    -0.29170
C185        C  0.10338115  0.27675043  0.49784520    -0.05270
C186        C  0.10797309  0.25552945  0.49927289     0.06940
C187        C  0.07523003  0.24723965  0.50003451     0.00740
H188        H  0.12315477  0.28850132  0.49686160     0.08390
H189        H  0.06834536  0.23101622  0.50120680     0.07470
N190        N  0.01740655  0.33647116  0.49790848    -0.36370
N191        N  0.48375508  0.33673307  0.50127369    -0.28550
C192        C  0.47313630  0.35650647  0.50296682    -0.03790
C193        C  0.00148970  0.36940945  0.50068535     0.04820
C194        C  0.02906087  0.35607136  0.49701879     0.02920
H195        H  0.44665697  0.36113635  0.50571879     0.08020
H196        H  0.05559423  0.36015539  0.49329487     0.06860
N197        N  0.42486468  0.28073512  0.24790196    -0.27530
N198        N  0.44156022  0.26290076  0.24917718    -0.35390
C199        C  0.41868905  0.24729915  0.24995388     0.00810
C200        C  0.38606621  0.25570315  0.24923256     0.06830
C201        C  0.39090336  0.27692273  0.24800470    -0.06270
H202        H  0.42539220  0.23104339  0.25093980     0.07500
H203        H  0.37124040  0.28874006  0.24702780     0.08700
Cu204      Cu  0.49458913  0.26022357  0.24991349     0.44170
Cu205      Cu  0.44865997  0.30954136  0.24598954     0.41990
Cu206      Cu  0.04055470  0.30842589  0.25520467     0.43880
N207        N  0.04769843  0.26216270  0.25073273    -0.34920
N208        N  0.06443983  0.27994281  0.25242549    -0.29170
C209        C  0.09836723  0.27621717  0.25226077    -0.05270
C210        C  0.10320853  0.25504799  0.25062449     0.06940
C211        C  0.07057573  0.24657808  0.24968774     0.00740
H212        H  0.11798213  0.28805546  0.25361164     0.08390
H213        H  0.06390636  0.23032498  0.24842156     0.07470
N214        N  0.01228311  0.33545274  0.25330984    -0.36370
N215        N  0.47897695  0.33602184  0.24793789    -0.28550
C216        C  0.46911370  0.35592793  0.24576467    -0.03790
C217        C  0.49759026  0.36868981  0.25022829     0.04820
C218        C  0.02433439  0.35488288  0.25553700     0.02920
H219        H  0.44296562  0.36065423  0.24125675     0.08020
H220        H  0.05054592  0.35826149  0.26153487     0.06860
O221        O  0.47022066  0.53154889  0.49998499    -0.73190
O222        O  0.46962488  0.46926594  0.50048873    -0.74170
O223        O  0.47054216  0.50055318  0.04531348    -0.62790
O224        O  0.46895865  0.50028839  0.45545354    -0.71200
O225        O  0.02564219  0.50057919  0.45469390    -0.70750
O226        O  0.02727114  0.49976254  0.04522160    -0.62000
O227        O  0.02644403  0.46913877  0.49945047    -0.74510
O228        O  0.02719612  0.53124357  0.50077811    -0.73290
Cu229      Cu  0.46789754  0.50041914  0.50034290     1.04560
Cu230      Cu  0.02863853  0.50017628  0.50000519     1.04330
C231        C  0.49887366  0.54119286  0.50060922     0.93010
C232        C  0.99795423  0.45932235  0.49970539     0.92150
C233        C  0.99905005  0.50020653  0.05967838     0.84300
C234        C  0.99685344  0.50042804  0.44063754     0.90570
O235        O  0.46684142  0.53126993  0.25024946    -0.73190
O236        O  0.46650494  0.46925407  0.25038326    -0.74170
O237        O  0.46808180  0.50026288  0.29559615    -0.62790
O238        O  0.46609088  0.50027704  0.20504420    -0.71200
O239        O  0.02281278  0.49991713  0.20478988    -0.70750
O240        O  0.02474882  0.50036555  0.29462168    -0.62000
O241        O  0.02319493  0.46899884  0.25008844    -0.74510
O242        O  0.02359352  0.53134288  0.24927601    -0.73290
Cu243      Cu  0.46490901  0.50027124  0.25034537     1.04560
Cu244      Cu  0.02553076  0.50015711  0.24967816     1.04330
C245        C  0.49512193  0.54121882  0.24950708     0.93010
C246        C  0.49464793  0.45917752  0.25033696     0.92150
C247        C  0.49692801  0.50032245  0.30954700     0.84300
C248        C  0.49427172  0.50000150  0.19049988     0.90570
C249        C  0.46646793  0.50013775  0.35860457    -0.09400
C250        C  0.49778516  0.50032754  0.34308155     0.06800
C251        C  0.02865817  0.50048444  0.36014641    -0.03170
C252        C  0.02741737  0.50053767  0.39158487    -0.07620
C253        C  0.49608846  0.50038474  0.40710213     0.05910
C254        C  0.46522445  0.50013468  0.39002858    -0.02640
Br255      Br  0.42000495  0.49970909  0.40716542    -0.02340
H256        H  0.44243295  0.49996337  0.34623116     0.09820
H257        H  0.05144445  0.50068117  0.40397160     0.07840
Br258      Br  0.07385072  0.50059363  0.34295349    -0.02760
C259        C  0.46736105  0.49654705  0.10781546    -0.09400
C260        C  0.49872365  0.50017443  0.09316289     0.06800
C261        C  0.02835214  0.50372791  0.11098627    -0.03170
C262        C  0.02594220  0.50357566  0.14234937    -0.07620
C263        C  0.49457680  0.49995876  0.15700834     0.05910
C264        C  0.46497015  0.49635342  0.13918850    -0.02640
Br265      Br  0.42041471  0.49040532  0.15542790    -0.02340
H266        H  0.44428252  0.49361952  0.09478882     0.09820
H267        H  0.04903257  0.50649853  0.15536288     0.07840
Br268      Br  0.07301612  0.50947796  0.09480342    -0.02360
C269        C  0.46659520  0.40238175  0.25414735    -0.09400
C270        C  0.49795376  0.39190422  0.25031865     0.06800
C271        C  0.02796230  0.40403698  0.24613712    -0.03170
C272        C  0.02595865  0.42567922  0.24674192    -0.07620
C273        C  0.49459837  0.43606931  0.25043776     0.05910
C274        C  0.46447516  0.42402111  0.25379810    -0.02640
Br275      Br  0.41915662  0.43545703  0.25790241    -0.02340
H276        H  0.44313128  0.39376365  0.25754509     0.09820
H277        H  0.04934627  0.43447215  0.24353051     0.07840
Br278      Br  0.07256367  0.39316894  0.23701548    -0.02760
C279        C  0.47285725  0.40276633  0.48813960    -0.09400
C280        C  0.00133694  0.39243128  0.50062119     0.06800
C281        C  0.02837615  0.40437146  0.01298508    -0.03170
C282        C  0.02671428  0.42601537  0.01204682    -0.07620
C283        C  0.99822450  0.43633639  0.49960029     0.05910
C284        C  0.47100849  0.42441716  0.48755031    -0.02640
Br285      Br  0.43132690  0.43645674  0.46852416    -0.02340
H286        H  0.45196037  0.39395429  0.47831199     0.09820
H287        H  0.04758469  0.43485768  0.02189037     0.07840
Br288      Br  0.06696255  0.39255708  0.03391006    -0.02760
C289        C  0.46815494  0.59784142  0.24114509    -0.09400
C290        C  0.49811102  0.60825296  0.25035333     0.06800
C291        C  0.02679167  0.59630877  0.25951307    -0.03170
C292        C  0.02517729  0.57466140  0.25853141    -0.07620
C293        C  0.49521193  0.56425984  0.24935448     0.05910
C294        C  0.46629997  0.57619710  0.24073081    -0.02640
Br295      Br  0.42357690  0.56442269  0.22718844    -0.02340
H296        H  0.44589131  0.60658493  0.23384885     0.09820
H297        H  0.04740785  0.56588186  0.26586316     0.07840
Br298      Br  0.06804764  0.60794306  0.27626660    -0.02760
C299        C  0.01987764  0.59705768  0.01970757    -0.09400
C300        C  0.49960775  0.60771995  0.99856779     0.06800
C301        C  0.47930372  0.59631161  0.47807003    -0.03170
C302        C  0.47903210  0.57465575  0.47942934    -0.07620
C303        C  0.49922186  0.56402124  0.50060216     0.05910
C304        C  0.01972407  0.57538676  0.02094946    -0.02640
Br305      Br  0.04604655  0.56216317  0.05215867    -0.02340
H306        H  0.03533990  0.60563601  0.03575701     0.09820
H307        H  0.46362626  0.56604871  0.46336552     0.07840
Br308      Br  0.45366491  0.60928934  0.44621720    -0.02760
C309        C  0.27426101  0.09762853  0.25942937    -0.09400
C310        C  0.24444154  0.10790270  0.24952911     0.06800
C311        C  0.21627623  0.09584620  0.23953281    -0.03170
C312        C  0.21820176  0.07422052  0.24040625    -0.07620
C313        C  0.24797319  0.06393446  0.25037419     0.05910
C314        C  0.27640395  0.07598096  0.25980623    -0.02640
Br315      Br  0.31869344  0.06430896  0.27447610    -0.02340
H316        H  0.29613307  0.10648056  0.26733600     0.09820
H317        H  0.19632874  0.06537095  0.23244995     0.07840
Br318      Br  0.17537060  0.10731885  0.22185451    -0.02760
C319        C  0.27400446  0.92538599  0.26197657    -0.09400
C320        C  0.24584440  0.93591682  0.24933145     0.06800
C321        C  0.21832306  0.92417185  0.23736681    -0.03170
C322        C  0.21965207  0.90250727  0.23814373    -0.07620
C323        C  0.24786914  0.89198891  0.25072164     0.05910
C324        C  0.27512176  0.90373801  0.26309590    -0.02640
Br325      Br  0.31327065  0.89164777  0.28429736    -0.02340
H326        H  0.29504984  0.93406454  0.27183785     0.09820
H327        H  0.19857227  0.89382109  0.22837335     0.07840
Br328      Br  0.17879967  0.93639106  0.21830721    -0.02760
C329        C  0.27725836  0.00371338  0.35827810    -0.09400
C330        C  0.24628051  0.99957201  0.34299282     0.06800
C331        C  0.21655903  0.99563235  0.36024468    -0.03170
C332        C  0.21846985  0.99597772  0.39167197    -0.07620
C333        C  0.24944310  0.00011050  0.40696478     0.05910
C334        C  0.27916874  0.00406692  0.38971294    -0.02640
Br335      Br  0.32325372  0.01074852  0.40680895    -0.02340
H336        H  0.30037618  0.00695013  0.34569817     0.09820
H337        H  0.19534262  0.99274506  0.40423850     0.07840
Br338      Br  0.17247114  0.98896708  0.34315065    -0.02760
C339        C  0.21906883  0.99385240  0.14137158    -0.09400
C340        C  0.24869064  0.00033594  0.15693347     0.06800
C341        C  0.27764566  0.00650234  0.14006060    -0.03170
C342        C  0.27641541  0.00592262  0.10861378    -0.07620
C343        C  0.24678979  0.99943888  0.09304675     0.05910
C344        C  0.21783897  0.99327160  0.10992590    -0.02640
Br345      Br  0.17617162  0.98288065  0.09212525    -0.02340
H346        H  0.19668251  0.98883779  0.15375508     0.09820
H347        H  0.29881195  0.01092720  0.09623691     0.07840
Br348      Br  0.31931341  0.01688552  0.15788210    -0.02760
C349        C  0.22121771  0.09779346  0.00298771    -0.09400
C350        C  0.25294110  0.10815625  0.00047919     0.06800
C351        C  0.28295188  0.09578495  0.49775787    -0.03170
C352        C  0.28043780  0.07414836  0.49818281    -0.07620
C353        C  0.24870863  0.06394543  0.00045709     0.05910
C354        C  0.21870579  0.07617341  0.00258897    -0.02640
Br355      Br  0.17300764  0.06500866  0.00497005    -0.02340
H356        H  0.19767793  0.10643414  0.00538149     0.09820
H357        H  0.30381324  0.06519789  0.49609938     0.07840
Br358      Br  0.32858978  0.10608759  0.49149715    -0.02760
C359        C  0.27934838  0.92537663  0.00612374    -0.09400
C360        C  0.24838089  0.93566842  0.99959928     0.06800
C361        C  0.21886151  0.92354997  0.49346538    -0.03170
C362        C  0.22115587  0.90191628  0.49343521    -0.07620
C363        C  0.25209913  0.89159840  0.00002478     0.05910
C364        C  0.28143911  0.90373522  0.00684126    -0.02640
Br365      Br  0.32469875  0.89255484  0.01995065    -0.02340
H366        H  0.30219727  0.93422993  0.01151774     0.09820
H367        H  0.19829506  0.89312944  0.48797523     0.07840
Br368      Br  0.17434807  0.93495278  0.48455723    -0.02760
O369        O  0.27669659  0.03087518  0.00086915    -0.73190
O370        O  0.27659982  0.96864610  0.00030395    -0.74170
O371        O  0.27747395  0.99995708  0.95542249    -0.62790
O372        O  0.27587372  0.99950977  0.54578763    -0.71200
O373        O  0.21911121  0.99972342  0.54461553    -0.70750
O374        O  0.22075508  0.99998484  0.95440889    -0.62000
O375        O  0.21988187  0.96875264  0.49941801    -0.74510
O376        O  0.22001096  0.03088816  0.49963010    -0.73290
Cu377      Cu  0.27863920  0.99975139  0.00063685     1.04560
Cu378      Cu  0.21800652  0.99983496  0.49948104     1.04330
C379        C  0.24831471  0.04083311  0.00033952     0.93010
C380        C  0.24814286  0.95876000  0.49970601     0.92150
C381        C  0.24937579  0.00008470  0.94048857     0.84300
C382        C  0.24717020  0.99946199  0.55959152     0.90570
O383        O  0.27628568  0.03080347  0.75064778    -0.73190
O384        O  0.27480686  0.96855503  0.75014792    -0.74170
O385        O  0.27638617  0.99985694  0.70533166    -0.62790
O386        O  0.27490123  0.99944916  0.79552413    -0.71200
O387        O  0.21817625  0.99991802  0.79457665    -0.70750
O388        O  0.21961594  0.00038399  0.70419864    -0.62000
O389        O  0.21799619  0.96905565  0.74908066    -0.74510
O390        O  0.21951399  0.03115735  0.74972215    -0.73290
Cu391      Cu  0.27755627  0.99964891  0.75045173     1.04560
Cu392      Cu  0.21686409  0.00014080  0.74936033     1.04330
C393        C  0.24809153  0.04089170  0.75038123     0.93010
C394        C  0.24612509  0.95891780  0.74935730     0.92150
C395        C  0.24831660  0.00029062  0.69038135     0.84300
C396        C  0.24630221  0.99957581  0.80947342     0.90570
N397        N  0.31936270  0.22049266  0.50173606    -0.27530
N398        N  0.30248376  0.23823517  0.00052658    -0.35390
C399        C  0.32524956  0.25391252  0.99976335     0.00810
C400        C  0.35794906  0.24554332  0.50042521     0.06830
C401        C  0.35325451  0.22433995  0.00160377    -0.06270
H402        H  0.31846114  0.27015697  0.99884583     0.07500
H403        H  0.37295496  0.21254485  0.00254518     0.08700
Cu404      Cu  0.24934122  0.23997867  0.99997059     0.44170
Cu405      Cu  0.29576543  0.19186390  0.50377761     0.41990
Cu406      Cu  0.20359248  0.19055614  0.49713397     0.43880
N407        N  0.19630769  0.23717049  0.49954310    -0.34920
N408        N  0.17966444  0.21929853  0.49870292    -0.29170
C409        C  0.14568428  0.22304548  0.49878115    -0.05270
C410        C  0.14078506  0.24426418  0.49954436     0.06940
C411        C  0.17338624  0.25273073  0.00002026     0.00740
H412        H  0.12605930  0.21118894  0.49805377     0.08390
H413        H  0.18004221  0.26900399  0.00059078     0.07470
N414        N  0.23407084  0.16415508  0.49834455    -0.36370
N415        N  0.26757146  0.16476517  0.50247845    -0.28550
C416        C  0.27975055  0.14534638  0.50436819    -0.03790
C417        C  0.25277155  0.13144676  0.50027106     0.04820
C418        C  0.22413677  0.14424650  0.49670065     0.02920
H419        H  0.30616968  0.14216798  0.50931770     0.08020
H420        H  0.19777983  0.13960490  0.49316345     0.06860
N421        N  0.17507090  0.21912877  0.75274245    -0.27530
N422        N  0.19166926  0.23695966  0.75099021    -0.35390
C423        C  0.16868094  0.25248072  0.74982316     0.00810
C424        C  0.13611924  0.24394882  0.75075340     0.06830
C425        C  0.14110441  0.22278861  0.75253536    -0.06270
H426        H  0.17524005  0.26874437  0.74841081     0.07500
H427        H  0.12156404  0.21091126  0.75383683     0.08700
Cu428      Cu  0.24473064  0.23930118  0.75007191     0.44170
Cu429      Cu  0.19911696  0.19061923  0.75520761     0.41990
Cu430      Cu  0.29105009  0.19047656  0.74659402     0.43880
N431        N  0.29780626  0.23706534  0.74923739    -0.34920
N432        N  0.31463832  0.21929247  0.74807756    -0.29170
C433        C  0.34855413  0.22318744  0.74811507    -0.05270
C434        C  0.35325627  0.24441495  0.74921952     0.06940
C435        C  0.32057166  0.25274167  0.74990094     0.00740
H436        H  0.36827661  0.21141204  0.74724525     0.08390
H437        H  0.31377105  0.26897964  0.75083127     0.07470
N438        N  0.26156105  0.16373260  0.74832606    -0.36370
N439        N  0.22811300  0.16385311  0.75289618    -0.28550
C440        C  0.21670134  0.14423144  0.75431555    -0.03790
C441        C  0.24413386  0.13095773  0.74956756     0.04820
C442        C  0.27224124  0.14398643  0.74620477     0.02920
H443        H  0.19043402  0.14014219  0.75917102     0.08020
H444        H  0.29860246  0.13947166  0.74244902     0.06860
N445        N  0.17997632  0.78050672  0.50250796    -0.27530
N446        N  0.19666404  0.76269459  0.50099401    -0.35390
C447        C  0.17379114  0.74709509  0.49999357     0.00810
C448        C  0.14116323  0.75548256  0.50083298     0.06830
C449        C  0.14600961  0.77669334  0.50238033    -0.06270
H450        H  0.18049279  0.73085495  0.49869816     0.07500
H451        H  0.12635532  0.78850346  0.50341652     0.08700
Cu452      Cu  0.24970260  0.76015682  0.50003055     0.44170
Cu453      Cu  0.20396791  0.80923576  0.50436149     0.41990
Cu454      Cu  0.29577587  0.80842212  0.49379099     0.43880
N455        N  0.30280180  0.76210369  0.49883892    -0.34920
N456        N  0.31959213  0.77983780  0.49659299    -0.29170
C457        C  0.35351351  0.77603439  0.49682176    -0.05270
C458        C  0.35828722  0.75487396  0.49916642     0.06940
C459        C  0.32562110  0.74649405  0.50038505     0.00740
H460        H  0.37317726  0.78782424  0.49531006     0.08390
H461        H  0.31888449  0.73028284  0.50232237     0.07470
N462        N  0.26729104  0.83538476  0.49649013    -0.36370
N463        N  0.23408384  0.83575551  0.50214212    -0.28550
C464        C  0.22394738  0.85558526  0.50456974    -0.03790
C465        C  0.25211766  0.86846528  0.50011432     0.04820
C466        C  0.27900673  0.85491841  0.49449194     0.02920
H467        H  0.19784903  0.86023013  0.50922175     0.08020
H468        H  0.30506604  0.85868097  0.48852078     0.06860
N469        N  0.17568166  0.78114402  0.75195203    -0.27530
N470        N  0.19229302  0.76329707  0.75070005    -0.35390
C471        C  0.16932884  0.74774939  0.74968985     0.00810
C472        C  0.13675229  0.75622714  0.75032896     0.06830
C473        C  0.14170616  0.77741630  0.75178602    -0.06270
H474        H  0.17593050  0.73149349  0.74840741     0.07500
H475        H  0.12212276  0.78928488  0.75240633     0.08700
Cu476      Cu  0.24533248  0.76067614  0.74989975     0.44170
Cu477      Cu  0.19963097  0.80983365  0.75296429     0.41990
Cu478      Cu  0.29176980  0.80900484  0.74540857     0.43880
N479        N  0.29845352  0.76255215  0.74894985    -0.34920
N480        N  0.31534792  0.78027936  0.74717357    -0.29170
C481        C  0.34924427  0.77639651  0.74742014    -0.05270
C482        C  0.35390489  0.75520385  0.74941680     0.06940
C483        C  0.32118507  0.74688211  0.75032611     0.00740
H484        H  0.36897889  0.78817030  0.74640799     0.08390
H485        H  0.31435323  0.73067297  0.75202232     0.07470
N486        N  0.26323865  0.83600496  0.74774380    -0.36370
N487        N  0.22962947  0.83635488  0.75142090    -0.28550
C488        C  0.21920635  0.85617088  0.75322942    -0.03790
C489        C  0.24766854  0.86897612  0.75075641     0.04820
C490        C  0.27505853  0.85556105  0.74681815     0.02920
H491        H  0.19280893  0.86089875  0.75621657     0.08020
H492        H  0.30158912  0.85957322  0.74290858     0.06860
N493        N  0.06985504  0.71897477  0.50061615    -0.27530
N494        N  0.05292393  0.73673573  0.50031552    -0.35390
C495        C  0.07562358  0.75245835  0.50024055     0.00810
C496        C  0.10836133  0.74417210  0.50044919     0.06830
C497        C  0.10375149  0.72292448  0.50064267    -0.06270
H498        H  0.06874559  0.76869934  0.50010760     0.07500
H499        H  0.12353152  0.71116536  0.50097896     0.08700
Cu500      Cu  0.49978987  0.73886920  0.50013305     0.44170
Cu501      Cu  0.04646522  0.69008485  0.50122719     0.41990
Cu502      Cu  0.45385717  0.69010325  0.49979912     0.43880
N503        N  0.44667599  0.73657049  0.50010957    -0.34920
N504        N  0.42995646  0.71873483  0.50018129    -0.29170
C505        C  0.39600677  0.72248336  0.50010959    -0.05270
C506        C  0.39115345  0.74369655  0.49988232     0.06940
C507        C  0.42378630  0.75216466  0.49989300     0.00740
H508        H  0.37637886  0.71062002  0.49994540     0.08390
H509        H  0.43046254  0.76843855  0.49965823     0.07470
N510        N  0.48315739  0.66336089  0.49944235    -0.36370
N511        N  0.01707428  0.66326840  0.50048795    -0.28550
C512        C  0.02814073  0.64351891  0.50035236    -0.03790
C513        C  0.49980814  0.63060899  0.49864004     0.04820
C514        C  0.47172758  0.64372042  0.49838321     0.02920
H515        H  0.05482772  0.63890356  0.50109082     0.08020
H516        H  0.44492671  0.63933372  0.49792185     0.06860
N517        N  0.06524781  0.72003528  0.74649524    -0.27530
N518        N  0.04841499  0.73773976  0.74874123    -0.35390
C519        C  0.07119915  0.75337862  0.75038712     0.00810
C520        C  0.10388156  0.74504884  0.74919947     0.06830
C521        C  0.09915371  0.72389072  0.74675878    -0.06270
H522        H  0.06442861  0.76956967  0.75244414     0.07500
H523        H  0.11884571  0.71212291  0.74537990     0.08700
Cu524      Cu  0.49531742  0.73960125  0.74996388     0.44170
Cu525      Cu  0.04157762  0.69138240  0.74405071     0.41990
Cu526      Cu  0.44975509  0.69042898  0.75425983     0.43880
N527        N  0.44229479  0.73694629  0.75099345    -0.34920
N528        N  0.42568812  0.71910000  0.75265549    -0.29170
C529        C  0.39170481  0.72282029  0.75243689    -0.05270
C530        C  0.38675810  0.74400416  0.75056563     0.06940
C531        C  0.41934347  0.75247842  0.74971075     0.00740
H532        H  0.37211216  0.71095623  0.75336472     0.08390
H533        H  0.42596236  0.76872376  0.74810015     0.07470
N534        N  0.47985497  0.66395303  0.75206230    -0.36370
N535        N  0.01318456  0.66436948  0.74690480    -0.28550
C536        C  0.02498945  0.64484782  0.74527847    -0.03790
C537        C  0.49797127  0.63132082  0.75048076     0.04820
C538        C  0.46966699  0.64411003  0.75435100     0.02920
H539        H  0.05121700  0.64100300  0.73993335     0.08020
H540        H  0.44349056  0.63936822  0.75853321     0.06860
N541        N  0.42982653  0.28157994  0.00129699    -0.27530
N542        N  0.44638909  0.26370630  0.00047812    -0.35390
C543        C  0.42337771  0.24817730  0.99996898     0.00810
C544        C  0.39083035  0.25670887  0.00041353     0.06830
C545        C  0.39584218  0.27790243  0.00122294    -0.06270
H546        H  0.42992663  0.23189444  0.99930867     0.07500
H547        H  0.37630183  0.28979665  0.00184532     0.08700
Cu548      Cu  0.99942706  0.26106084  0.99989890     0.44170
Cu549      Cu  0.45386908  0.31019827  0.00241499     0.41990
Cu550      Cu  0.04605259  0.30947194  0.99594782     0.43880
N551        N  0.05254988  0.26295142  0.99911114    -0.34920
N552        N  0.06949763  0.28068034  0.99771208    -0.29170
C553        C  0.10338115  0.27675029  0.99784519    -0.05270
C554        C  0.10797311  0.25552932  0.99927290     0.06940
C555        C  0.07523005  0.24723950  0.00003452     0.00740
H556        H  0.12315475  0.28850119  0.99686156     0.08390
H557        H  0.06834540  0.23101607  0.00120684     0.07470
N558        N  0.01740654  0.33647092  0.99790843    -0.36370
N559        N  0.48375508  0.33673283  0.00127371    -0.28550
C560        C  0.47313629  0.35650621  0.00296687    -0.03790
C561        C  0.00148968  0.36940918  0.00068534     0.04820
C562        C  0.02906085  0.35607112  0.99701873     0.02920
H563        H  0.44665696  0.36113609  0.00571889     0.08020
H564        H  0.05559420  0.36015516  0.99329477     0.06860
N565        N  0.42486467  0.28073510  0.74790193    -0.27530
N566        N  0.44156022  0.26290075  0.74917717    -0.35390
C567        C  0.41868904  0.24729913  0.74995387     0.00810
C568        C  0.38606620  0.25570313  0.74923254     0.06830
C569        C  0.39090336  0.27692271  0.74800467    -0.06270
H570        H  0.42539219  0.23104338  0.75093980     0.07500
H571        H  0.37124039  0.28874004  0.74702776     0.08700
Cu572      Cu  0.49458913  0.26022356  0.74991349     0.44170
Cu573      Cu  0.44865996  0.30954134  0.74598951     0.41990
Cu574      Cu  0.04055468  0.30842588  0.75520474     0.43880
N575        N  0.04769843  0.26216269  0.75073275    -0.34920
N576        N  0.06443982  0.27994280  0.75242553    -0.29170
C577        C  0.09836722  0.27621717  0.75226082    -0.05270
C578        C  0.10320853  0.25504799  0.75062450     0.06940
C579        C  0.07057573  0.24657807  0.74968774     0.00740
H580        H  0.11798212  0.28805545  0.75361170     0.08390
H581        H  0.06390636  0.23032497  0.74842153     0.07470
N582        N  0.01228309  0.33545273  0.75330989    -0.36370
N583        N  0.47897693  0.33602182  0.74793789    -0.28550
C584        C  0.46911368  0.35592791  0.74576466    -0.03790
C585        C  0.49759023  0.36868980  0.75022831     0.04820
C586        C  0.02433435  0.35488287  0.75553706     0.02920
H587        H  0.44296560  0.36065422  0.74125670     0.08020
H588        H  0.05054588  0.35826149  0.76153496     0.06860
O589        O  0.47022095  0.53154845  0.99998498    -0.73190
O590        O  0.46962490  0.46926559  0.00048876    -0.74170
O591        O  0.47054202  0.50055355  0.54531348    -0.62790
O592        O  0.46895878  0.50028801  0.95545355    -0.71200
O593        O  0.02564232  0.50057877  0.95469390    -0.70750
O594        O  0.02727100  0.49976298  0.54522159    -0.62000
O595        O  0.02644405  0.46913836  0.99945046    -0.74510
O596        O  0.02719642  0.53124308  0.00077811    -0.73290
Cu597      Cu  0.46789768  0.50041875  0.00034291     1.04560
Cu598      Cu  0.02863869  0.50017583  0.00000520     1.04330
C599        C  0.49887399  0.54119238  0.00060917     0.93010
C600        C  0.99795422  0.45932198  0.99970540     0.92150
C601        C  0.99904991  0.50020690  0.55967837     0.84300
C602        C  0.99685355  0.50042768  0.94063755     0.90570
O603        O  0.46684141  0.53126992  0.75024947    -0.73190
O604        O  0.46650491  0.46925406  0.75038327    -0.74170
O605        O  0.46808180  0.50026287  0.79559616    -0.62790
O606        O  0.46609085  0.50027703  0.70504420    -0.71200
O607        O  0.02281276  0.49991711  0.70478987    -0.70750
O608        O  0.02474882  0.50036552  0.79462167    -0.62000
O609        O  0.02319491  0.46899882  0.75008843    -0.74510
O610        O  0.02359352  0.53134286  0.74927600    -0.73290
Cu611      Cu  0.46490900  0.50027123  0.75034538     1.04560
Cu612      Cu  0.02553074  0.50015709  0.74967815     1.04330
C613        C  0.49512192  0.54121881  0.74950708     0.93010
C614        C  0.49464791  0.45917750  0.75033696     0.92150
C615        C  0.49692802  0.50032244  0.80954700     0.84300
C616        C  0.49427169  0.50000150  0.69049988     0.90570
C617        C  0.46646798  0.50013773  0.85860459    -0.09400
C618        C  0.49778520  0.50032749  0.84308155     0.06800
C619        C  0.02865822  0.50048431  0.86014640    -0.03170
C620        C  0.02741744  0.50053743  0.89158486    -0.07620
C621        C  0.49608855  0.50038449  0.90710213     0.05910
C622        C  0.46522453  0.50013457  0.89002860    -0.02640
Br623      Br  0.42000503  0.49970910  0.90716547    -0.02340
H624        H  0.44243299  0.49996344  0.84623119     0.09820
H625        H  0.05144453  0.50068086  0.90397158     0.07840
Br626      Br  0.07385075  0.50059354  0.84295346    -0.02760
C627        C  0.46736095  0.49654727  0.60781545    -0.09400
C628        C  0.49872354  0.50017469  0.59316288     0.06800
C629        C  0.02835206  0.50372808  0.61098627    -0.03170
C630        C  0.02594216  0.50357573  0.64234937    -0.07620
C631        C  0.49457675  0.49995881  0.65700833     0.05910
C632        C  0.46497009  0.49635353  0.63918849    -0.02640
Br633      Br  0.42041468  0.49040535  0.65542789    -0.02340
H634        H  0.44428241  0.49361979  0.59478881     0.09820
H635        H  0.04903254  0.50649854  0.65536288     0.07840
Br636      Br  0.07301606  0.50947811  0.59480344    -0.02360
C637        C  0.46659517  0.40238174  0.75414738    -0.09400
C638        C  0.49795372  0.39190420  0.75031866     0.06800
C639        C  0.02796226  0.40403696  0.74613710    -0.03170
C640        C  0.02595861  0.42567920  0.74674191    -0.07620
C641        C  0.49459835  0.43606929  0.75043777     0.05910
C642        C  0.46447513  0.42402110  0.75379812    -0.02640
Br643      Br  0.41915659  0.43545702  0.75790246    -0.02340
H644        H  0.44313124  0.39376364  0.75754514     0.09820
H645        H  0.04934623  0.43447213  0.74353048     0.07840
Br646      Br  0.07256360  0.39316891  0.73701541    -0.02760
C647        C  0.47285723  0.40276602  0.98813957    -0.09400
C648        C  0.00133691  0.39243100  0.00062119     0.06800
C649        C  0.02837620  0.40437176  0.51298503    -0.03170
C650        C  0.02671434  0.42601569  0.51204676    -0.07620
C651        C  0.99822445  0.43633605  0.99960031     0.05910
C652        C  0.47100846  0.42441684  0.98755029    -0.02640
Br653      Br  0.43132690  0.43645644  0.96852410    -0.02340
H654        H  0.45196036  0.39395399  0.97831194     0.09820
H655        H  0.04758477  0.43485800  0.52189028     0.07840
Br656      Br  0.06696261  0.39255738  0.53390999    -0.02760
C657        C  0.46815494  0.59784141  0.74114507    -0.09400
C658        C  0.49811102  0.60825295  0.75035332     0.06800
C659        C  0.02679168  0.59630875  0.75951305    -0.03170
C660        C  0.02517730  0.57466138  0.75853139    -0.07620
C661        C  0.49521193  0.56425983  0.74935447     0.05910
C662        C  0.46629997  0.57619709  0.74073079    -0.02640
Br663      Br  0.42357691  0.56442268  0.72718841    -0.02340
H664        H  0.44589131  0.60658492  0.73384883     0.09820
H665        H  0.04740786  0.56588183  0.76586313     0.07840
Br666      Br  0.06804767  0.60794303  0.77626657    -0.02760
C667        C  0.01987770  0.59705814  0.51970771    -0.09400
C668        C  0.49960788  0.60772052  0.49856801     0.06800
C669        C  0.47930398  0.59631097  0.97806963    -0.03170
C670        C  0.47903259  0.57465513  0.97942896    -0.07620
C671        C  0.49922221  0.56402073  0.00060197     0.05910
C672        C  0.01972390  0.57538721  0.52094958    -0.02640
Br673      Br  0.04604642  0.56216354  0.55215869    -0.02340
H674        H  0.03534021  0.60563639  0.53575705     0.09820
H675        H  0.46362697  0.56604802  0.96336505     0.07840
Br676      Br  0.45366536  0.60928859  0.94621659    -0.02760
C677        C  0.27426100  0.09762852  0.75942937    -0.09400
C678        C  0.24444153  0.10790269  0.74952912     0.06800
C679        C  0.21627622  0.09584619  0.73953283    -0.03170
C680        C  0.21820175  0.07422051  0.74040627    -0.07620
C681        C  0.24797319  0.06393445  0.75037419     0.05910
C682        C  0.27640395  0.07598095  0.75980622    -0.02640
Br683      Br  0.31869345  0.06430894  0.77447607    -0.02340
H684        H  0.29613307  0.10648055  0.76733599     0.09820
H685        H  0.19632873  0.06537094  0.73244997     0.07840
Br686      Br  0.17537058  0.10731883  0.72185454    -0.02760
C687        C  0.27400445  0.92538598  0.76197656    -0.09400
C688        C  0.24584439  0.93591681  0.74933145     0.06800
C689        C  0.21832305  0.92417184  0.73736682    -0.03170
C690        C  0.21965206  0.90250726  0.73814373    -0.07620
C691        C  0.24786914  0.89198890  0.75072163     0.05910
C692        C  0.27512176  0.90373800  0.76309588    -0.02640
Br693      Br  0.31327065  0.89164776  0.78429734    -0.02340
H694        H  0.29504984  0.93406453  0.77183784     0.09820
H695        H  0.19857226  0.89382108  0.72837336     0.07840
Br696      Br  0.17879964  0.93639105  0.71830724    -0.02760
C697        C  0.27725835  0.00371337  0.85827810    -0.09400
C698        C  0.24628050  0.99957200  0.84299282     0.06800
C699        C  0.21655903  0.99563233  0.86024468    -0.03170
C700        C  0.21846985  0.99597768  0.89167197    -0.07620
C701        C  0.24944311  0.00011043  0.90696479     0.05910
C702        C  0.27916874  0.00406689  0.88971295    -0.02640
Br703      Br  0.32325371  0.01074851  0.90680896    -0.02340
H704        H  0.30037616  0.00695013  0.84569817     0.09820
H705        H  0.19534263  0.99274500  0.90423850     0.07840
Br706      Br  0.17247112  0.98896709  0.84315065    -0.02760
C707        C  0.21906882  0.99385242  0.64137157    -0.09400
C708        C  0.24869063  0.00033595  0.65693347     0.06800
C709        C  0.27764566  0.00650235  0.64006061    -0.03170
C710        C  0.27641539  0.00592267  0.60861378    -0.07620
C711        C  0.24678976  0.99943895  0.59304675     0.05910
C712        C  0.21783895  0.99327164  0.60992589    -0.02640
Br713      Br  0.17617160  0.98288071  0.59212523    -0.02340
H714        H  0.19668250  0.98883780  0.65375507     0.09820
H715        H  0.29881193  0.01092726  0.59623692     0.07840
Br716      Br  0.31931341  0.01688552  0.65788211    -0.02760
C717        C  0.22121768  0.09779356  0.50298771    -0.09400
C718        C  0.25294107  0.10815634  0.50047919     0.06800
C719        C  0.28295192  0.09578486  0.99775788    -0.03170
C720        C  0.28043784  0.07414827  0.99818282    -0.07620
C721        C  0.24870859  0.06394553  0.50045708     0.05910
C722        C  0.21870575  0.07617351  0.50258897    -0.02640
Br723      Br  0.17300760  0.06500875  0.50497005    -0.02340
H724        H  0.19767789  0.10643424  0.50538149     0.09820
H725        H  0.30381329  0.06519780  0.99609940     0.07840
Br726      Br  0.32858981  0.10608751  0.99149717    -0.02760
C727        C  0.27934860  0.92537693  0.50612384    -0.09400
C728        C  0.24838102  0.93566861  0.49959932     0.06800
C729        C  0.21886128  0.92354988  0.99346535    -0.03170
C730        C  0.22115543  0.90191618  0.99343520    -0.07620
C731        C  0.25209970  0.89159863  0.50002477     0.05910
C732        C  0.28143953  0.90373554  0.50684135    -0.02640
Br733      Br  0.32469920  0.89255530  0.51995092    -0.02340
H734        H  0.30219739  0.93423030  0.51151790     0.09820
H735        H  0.19829450  0.89312944  0.98797523     0.07840
Br736      Br  0.17434792  0.93495281  0.98455719    -0.02760
O737        O  0.77669655  0.03087531  0.50086915    -0.73190
O738        O  0.77659978  0.96864629  0.50030395    -0.74170
O739        O  0.77747390  0.99995722  0.45542249    -0.62790
O740        O  0.77587377  0.99950963  0.04578764    -0.71200
O741        O  0.71911126  0.99972331  0.04461553    -0.70750
O742        O  0.72075504  0.99998494  0.45440889    -0.62000
O743        O  0.71988193  0.96875252  0.99941801    -0.74510
O744        O  0.72001101  0.03088805  0.99963012    -0.73290
Cu745      Cu  0.77863915  0.99975154  0.50063684     1.04560
Cu746      Cu  0.71800658  0.99983485  0.99948104     1.04330
C747        C  0.74831466  0.04083322  0.50033951     0.93010
C748        C  0.74814288  0.95875984  0.99970600     0.92150
C749        C  0.74937575  0.00008480  0.44048856     0.84300
C750        C  0.74717025  0.99946188  0.05959153     0.90570
O751        O  0.77628568  0.03080349  0.25064777    -0.73190
O752        O  0.77480686  0.96855505  0.25014792    -0.74170
O753        O  0.77638618  0.99985695  0.20533167    -0.62790
O754        O  0.77490122  0.99944917  0.29552413    -0.71200
O755        O  0.71817624  0.99991803  0.29457664    -0.70750
O756        O  0.71961595  0.00038400  0.20419863    -0.62000
O757        O  0.71799619  0.96905567  0.24908066    -0.74510
O758        O  0.71951399  0.03115736  0.24972215    -0.73290
Cu759      Cu  0.77755627  0.99964893  0.25045173     1.04560
Cu760      Cu  0.71686409  0.00014081  0.24936033     1.04330
C761        C  0.74809153  0.04089171  0.25038122     0.93010
C762        C  0.74612509  0.95891781  0.24935730     0.92150
C763        C  0.74831661  0.00029063  0.19038135     0.84300
C764        C  0.74630221  0.99957583  0.30947341     0.90570
N765        N  0.81936267  0.22049258  0.00173606    -0.27530
N766        N  0.80248377  0.23823526  0.50052659    -0.35390
C767        C  0.82524955  0.25391262  0.49976336     0.00810
C768        C  0.85794905  0.24554321  0.00042519     0.06830
C769        C  0.85325454  0.22434005  0.50160378    -0.06270
H770        H  0.81846111  0.27015706  0.49884584     0.07500
H771        H  0.87295501  0.21254497  0.50254519     0.08700
Cu772      Cu  0.74934122  0.23997873  0.49997059     0.44170
Cu773      Cu  0.79576540  0.19186382  0.00377761     0.41990
Cu774      Cu  0.70359252  0.19055606  0.99713397     0.43880
N775        N  0.69630771  0.23717041  0.99954311    -0.34920
N776        N  0.67966448  0.21929845  0.99870293    -0.29170
C777        C  0.64568432  0.22304538  0.99878117    -0.05270
C778        C  0.64078508  0.24426407  0.99954438     0.06940
C779        C  0.67338623  0.25273082  0.50002025     0.00740
H780        H  0.62605935  0.21118883  0.99805379     0.08390
H781        H  0.68004223  0.26900408  0.50059077     0.07470
N782        N  0.73407085  0.16415499  0.99834456    -0.36370
N783        N  0.76757147  0.16476508  0.00247845    -0.28550
C784        C  0.77975057  0.14534630  0.00436819    -0.03790
C785        C  0.75277157  0.13144667  0.00027107     0.04820
C786        C  0.72413679  0.14424641  0.99670066     0.02920
H787        H  0.80616969  0.14216790  0.00931771     0.08020
H788        H  0.69777985  0.13960481  0.99316345     0.06860
N789        N  0.67507091  0.21912878  0.25274246    -0.27530
N790        N  0.69166927  0.23695967  0.25099022    -0.35390
C791        C  0.66868095  0.25248073  0.24982316     0.00810
C792        C  0.63611925  0.24394883  0.25075340     0.06830
C793        C  0.64110442  0.22278862  0.25253537    -0.06270
H794        H  0.67524005  0.26874438  0.24841080     0.07500
H795        H  0.62156405  0.21091126  0.25383684     0.08700
Cu796      Cu  0.74473065  0.23930119  0.25007192     0.44170
Cu797      Cu  0.69911698  0.19061925  0.25520762     0.41990
Cu798      Cu  0.79105010  0.19047658  0.24659402     0.43880
N799        N  0.79780626  0.23706536  0.24923739    -0.34920
N800        N  0.81463833  0.21929249  0.24807756    -0.29170
C801        C  0.84855413  0.22318746  0.24811508    -0.05270
C802        C  0.85325628  0.24441497  0.24921954     0.06940
C803        C  0.82057166  0.25274169  0.24990095     0.00740
H804        H  0.86827662  0.21141206  0.24724526     0.08390
H805        H  0.81377105  0.26897966  0.25083129     0.07470
N806        N  0.76156107  0.16373261  0.24832606    -0.36370
N807        N  0.72811301  0.16385313  0.25289618    -0.28550
C808        C  0.71670136  0.14423145  0.25431554    -0.03790
C809        C  0.74413388  0.13095774  0.24956755     0.04820
C810        C  0.77224126  0.14398644  0.24620476     0.02920
H811        H  0.69043404  0.14014220  0.25917101     0.08020
H812        H  0.79860247  0.13947167  0.24244902     0.06860
N813        N  0.67997333  0.78050687  0.00250775    -0.27530
N814        N  0.69666092  0.76269468  0.00099391    -0.35390
C815        C  0.67378794  0.74709524  0.99999358     0.00810
C816        C  0.64116006  0.75548274  0.00083295     0.06830
C817        C  0.64600656  0.77669354  0.00238016    -0.06270
H818        H  0.68048952  0.73085508  0.99869829     0.07500
H819        H  0.62635232  0.78850369  0.00341629     0.08700
Cu820      Cu  0.74969947  0.76015660  0.00003052     0.44170
Cu821      Cu  0.70396546  0.80923583  0.00436115     0.41990
Cu822      Cu  0.79577377  0.80842146  0.99379132     0.43880
N823        N  0.80279876  0.76210292  0.99883891    -0.34920
N824        N  0.81958944  0.77983693  0.99659309    -0.29170
C825        C  0.85351072  0.77603327  0.99682184    -0.05270
C826        C  0.85828406  0.75487280  0.99916638     0.06940
C827        C  0.82561777  0.74649310  0.00038495     0.00740
H828        H  0.87317474  0.78782303  0.99531025     0.08390
H829        H  0.81888087  0.73028197  0.00232220     0.07470
N830        N  0.76728946  0.83538434  0.99649041    -0.36370
N831        N  0.73408219  0.83575534  0.00214208    -0.28550
C832        C  0.72394615  0.85558518  0.00456963    -0.03790
C833        C  0.75211674  0.86846501  0.00011447     0.04820
C834        C  0.77900559  0.85491791  0.99449236     0.02920
H835        H  0.69784783  0.86023024  0.00922138     0.08020
H836        H  0.80506506  0.85868026  0.98852142     0.06860
N837        N  0.67568163  0.78114404  0.25195204    -0.27530
N838        N  0.69229300  0.76329710  0.25070006    -0.35390
C839        C  0.66932881  0.74774942  0.24968985     0.00810
C840        C  0.63675227  0.75622716  0.25032897     0.06830
C841        C  0.64170614  0.77741632  0.25178602    -0.06270
H842        H  0.67593047  0.73149351  0.24840741     0.07500
H843        H  0.62212273  0.78928490  0.25240633     0.08700
Cu844      Cu  0.74533245  0.76067616  0.24989976     0.44170
Cu845      Cu  0.69963095  0.80983368  0.25296430     0.41990
Cu846      Cu  0.79176978  0.80900485  0.24540858     0.43880
N847        N  0.79845349  0.76255217  0.24894985    -0.34920
N848        N  0.81534789  0.78027937  0.24717357    -0.29170
C849        C  0.84924425  0.77639652  0.24742014    -0.05270
C850        C  0.85390486  0.75520386  0.24941680     0.06940
C851        C  0.82118504  0.74688212  0.25032611     0.00740
H852        H  0.86897887  0.78817031  0.24640799     0.08390
H853        H  0.81435320  0.73067298  0.25202232     0.07470
N854        N  0.76323864  0.83600497  0.24774381    -0.36370
N855        N  0.72962946  0.83635489  0.25142091    -0.28550
C856        C  0.71920634  0.85617090  0.25322943    -0.03790
C857        C  0.74766854  0.86897614  0.25075642     0.04820
C858        C  0.77505852  0.85556106  0.24681816     0.02920
H859        H  0.69280892  0.86089877  0.25621658     0.08020
H860        H  0.80158911  0.85957324  0.24290859     0.06860
N861        N  0.56985230  0.71897464  0.00061620    -0.27530
N862        N  0.55292087  0.73673548  0.00031559    -0.35390
C863        C  0.57562028  0.75245826  0.00024062     0.00810
C864        C  0.60835820  0.74417219  0.00044924     0.06830
C865        C  0.60374867  0.72292455  0.00064271    -0.06270
H866        H  0.56874203  0.76869920  0.00010767     0.07500
H867        H  0.62352888  0.71116554  0.00097897     0.08700
Cu868      Cu  0.99978669  0.73886829  0.00013312     0.44170
Cu869      Cu  0.54646288  0.69008462  0.00122722     0.41990
Cu870      Cu  0.95385439  0.69010207  0.99979946     0.43880
N871        N  0.94667279  0.73656926  0.00010966    -0.34920
N872        N  0.92995331  0.71873357  0.00018148    -0.29170
C873        C  0.89600360  0.72248208  0.00010973    -0.05270
C874        C  0.89115021  0.74369527  0.99988233     0.06940
C875        C  0.92378305  0.75216340  0.99989300     0.00740
H876        H  0.87637562  0.71061868  0.99994560     0.08390
H877        H  0.93045925  0.76843724  0.99965813     0.07470
N878        N  0.98315561  0.66336009  0.99944256    -0.36370
N879        N  0.51707253  0.66326797  0.00048803    -0.28550
C880        C  0.52813958  0.64351861  0.00035229    -0.03790
C881        C  0.99980738  0.63060840  0.99864000     0.04820
C882        C  0.97172641  0.64371950  0.99838335     0.02920
H883        H  0.55482672  0.63890354  0.00109061     0.08020
H884        H  0.94492567  0.63933249  0.99792202     0.06860
N885        N  0.56524779  0.72003530  0.24649524    -0.27530
N886        N  0.54841496  0.73773978  0.24874124    -0.35390
C887        C  0.57119912  0.75337864  0.25038713     0.00810
C888        C  0.60388153  0.74504886  0.24919947     0.06830
C889        C  0.59915368  0.72389074  0.24675878    -0.06270
H890        H  0.56442857  0.76956969  0.25244415     0.07500
H891        H  0.61884569  0.71212293  0.24537991     0.08700
Cu892      Cu  0.99531739  0.73960126  0.24996388     0.44170
Cu893      Cu  0.54157761  0.69138242  0.24405071     0.41990
Cu894      Cu  0.94975506  0.69042899  0.25425984     0.43880
N895        N  0.94229476  0.73694630  0.25099345    -0.34920
N896        N  0.92568809  0.71910001  0.25265549    -0.29170
C897        C  0.89170479  0.72282030  0.25243689    -0.05270
C898        C  0.88675807  0.74400417  0.25056563     0.06940
C899        C  0.91934344  0.75247842  0.24971075     0.00740
H900        H  0.87211213  0.71095624  0.25336472     0.08390
H901        H  0.92596234  0.76872377  0.24810015     0.07470
N902        N  0.97985495  0.66395304  0.25206231    -0.36370
N903        N  0.51318455  0.66436950  0.24690480    -0.28550
C904        C  0.52498945  0.64484784  0.24527848    -0.03790
C905        C  0.99797125  0.63132084  0.25048077     0.04820
C906        C  0.96966697  0.64411004  0.25435101     0.02920
H907        H  0.55121700  0.64100302  0.23993337     0.08020
H908        H  0.94349054  0.63936823  0.25853322     0.06860
N909        N  0.92982651  0.28158010  0.50129698    -0.27530
N910        N  0.94638909  0.26370647  0.50047813    -0.35390
C911        C  0.92337772  0.24817745  0.49996900     0.00810
C912        C  0.89083035  0.25670900  0.50041354     0.06830
C913        C  0.89584217  0.27790257  0.50122294    -0.06270
H914        H  0.92992666  0.23189460  0.49930870     0.07500
H915        H  0.87630180  0.28979678  0.50184530     0.08700
Cu916      Cu  0.49942706  0.26106100  0.49989890     0.44170
Cu917      Cu  0.95386908  0.31019847  0.50241495     0.41990
Cu918      Cu  0.54605258  0.30947213  0.49594789     0.43880
N919        N  0.55254987  0.26295158  0.49911114    -0.34920
N920        N  0.56949763  0.28068050  0.49771211    -0.29170
C921        C  0.60338115  0.27675043  0.49784521    -0.05270
C922        C  0.60797309  0.25552945  0.49927289     0.06940
C923        C  0.57523002  0.24723965  0.50003451     0.00740
H924        H  0.62315477  0.28850132  0.49686160     0.08390
H925        H  0.56834536  0.23101623  0.50120680     0.07470
N926        N  0.51740654  0.33647116  0.49790848    -0.36370
N927        N  0.98375508  0.33673307  0.50127370    -0.28550
C928        C  0.97313631  0.35650646  0.50296682    -0.03790
C929        C  0.50148970  0.36940945  0.50068534     0.04820
C930        C  0.52906086  0.35607136  0.49701879     0.02920
H931        H  0.94665697  0.36113634  0.50571880     0.08020
H932        H  0.55559423  0.36015539  0.49329486     0.06860
N933        N  0.92486468  0.28073512  0.24790196    -0.27530
N934        N  0.94156022  0.26290077  0.24917718    -0.35390
C935        C  0.91868905  0.24729915  0.24995388     0.00810
C936        C  0.88606621  0.25570315  0.24923256     0.06830
C937        C  0.89090336  0.27692273  0.24800470    -0.06270
H938        H  0.92539220  0.23104340  0.25093980     0.07500
H939        H  0.87124040  0.28874006  0.24702780     0.08700
Cu940      Cu  0.99458913  0.26022357  0.24991349     0.44170
Cu941      Cu  0.94865997  0.30954136  0.24598954     0.41990
Cu942      Cu  0.54055470  0.30842589  0.25520467     0.43880
N943        N  0.54769843  0.26216270  0.25073273    -0.34920
N944        N  0.56443983  0.27994281  0.25242548    -0.29170
C945        C  0.59836723  0.27621717  0.25226077    -0.05270
C946        C  0.60320853  0.25504799  0.25062448     0.06940
C947        C  0.57057573  0.24657807  0.24968774     0.00740
H948        H  0.61798213  0.28805546  0.25361163     0.08390
H949        H  0.56390636  0.23032498  0.24842156     0.07470
N950        N  0.51228311  0.33545274  0.25330984    -0.36370
N951        N  0.97897694  0.33602184  0.24793789    -0.28550
C952        C  0.96911370  0.35592793  0.24576467    -0.03790
C953        C  0.99759026  0.36868981  0.25022829     0.04820
C954        C  0.52433439  0.35488287  0.25553700     0.02920
H955        H  0.94296562  0.36065423  0.24125674     0.08020
H956        H  0.55054593  0.35826149  0.26153486     0.06860
O957        O  0.97022065  0.53154889  0.49998499    -0.73190
O958        O  0.96962489  0.46926594  0.50048873    -0.74170
O959        O  0.97054216  0.50055318  0.04531348    -0.62790
O960        O  0.96895865  0.50028839  0.45545354    -0.71200
O961        O  0.52564220  0.50057919  0.45469390    -0.70750
O962        O  0.52727115  0.49976254  0.04522160    -0.62000
O963        O  0.52644403  0.46913877  0.49945047    -0.74510
O964        O  0.52719612  0.53124357  0.50077811    -0.73290
Cu965      Cu  0.96789754  0.50041914  0.50034290     1.04560
Cu966      Cu  0.52863854  0.50017628  0.50000520     1.04330
C967        C  0.99887366  0.54119286  0.50060921     0.93010
C968        C  0.49795423  0.45932235  0.49970539     0.92150
C969        C  0.49905005  0.50020653  0.05967838     0.84300
C970        C  0.49685344  0.50042804  0.44063754     0.90570
O971        O  0.96684140  0.53126993  0.25024946    -0.73190
O972        O  0.96650493  0.46925407  0.25038326    -0.74170
O973        O  0.96808179  0.50026288  0.29559615    -0.62790
O974        O  0.96609087  0.50027704  0.20504419    -0.71200
O975        O  0.52281280  0.49991713  0.20478988    -0.70750
O976        O  0.52474883  0.50036554  0.29462168    -0.62000
O977        O  0.52319494  0.46899884  0.25008844    -0.74510
O978        O  0.52359353  0.53134288  0.24927601    -0.73290
Cu979      Cu  0.96490900  0.50027124  0.25034537     1.04560
Cu980      Cu  0.52553077  0.50015710  0.24967816     1.04330
C981        C  0.99512192  0.54121883  0.24950708     0.93010
C982        C  0.99464792  0.45917752  0.25033696     0.92150
C983        C  0.99692800  0.50032245  0.30954700     0.84300
C984        C  0.99427171  0.50000151  0.19049988     0.90570
C985        C  0.96646792  0.50013775  0.35860457    -0.09400
C986        C  0.99778515  0.50032754  0.34308155     0.06800
C987        C  0.52865818  0.50048444  0.36014641    -0.03170
C988        C  0.52741737  0.50053767  0.39158488    -0.07620
C989        C  0.99608846  0.50038474  0.40710213     0.05910
C990        C  0.96522445  0.50013468  0.39002858    -0.02640
Br991      Br  0.92000495  0.49970909  0.40716543    -0.02340
H992        H  0.94243295  0.49996337  0.34623116     0.09820
H993        H  0.55144445  0.50068117  0.40397160     0.07840
Br994      Br  0.57385073  0.50059363  0.34295350    -0.02760
C995        C  0.96736104  0.49654705  0.10781546    -0.09400
C996        C  0.99872365  0.50017442  0.09316288     0.06800
C997        C  0.52835214  0.50372792  0.11098627    -0.03170
C998        C  0.52594221  0.50357567  0.14234937    -0.07620
C999        C  0.99457679  0.49995876  0.15700834     0.05910
C1000       C  0.96497014  0.49635342  0.13918850    -0.02640
Br1001     Br  0.92041470  0.49040533  0.15542790    -0.02340
H1002       H  0.94428251  0.49361952  0.09478882     0.09820
H1003       H  0.54903258  0.50649854  0.15536288     0.07840
Br1004     Br  0.57301612  0.50947797  0.09480342    -0.02360
C1005       C  0.96659520  0.40238175  0.25414736    -0.09400
C1006       C  0.99795376  0.39190422  0.25031865     0.06800
C1007       C  0.52796230  0.40403698  0.24613712    -0.03170
C1008       C  0.52595865  0.42567922  0.24674193    -0.07620
C1009       C  0.99459837  0.43606931  0.25043776     0.05910
C1010       C  0.96447516  0.42402111  0.25379810    -0.02640
Br1011     Br  0.91915661  0.43545703  0.25790242    -0.02340
H1012       H  0.94313127  0.39376365  0.25754510     0.09820
H1013       H  0.54934628  0.43447215  0.24353052     0.07840
Br1014     Br  0.57256367  0.39316894  0.23701549    -0.02760
C1015       C  0.97285725  0.40276632  0.48813961    -0.09400
C1016       C  0.50133694  0.39243129  0.50062119     0.06800
C1017       C  0.52837615  0.40437146  0.01298509    -0.03170
C1018       C  0.52671427  0.42601537  0.01204683    -0.07620
C1019       C  0.49822450  0.43633639  0.49960029     0.05910
C1020       C  0.97100849  0.42441716  0.48755032    -0.02640
Br1021     Br  0.93132689  0.43645674  0.46852417    -0.02340
H1022       H  0.95196036  0.39395429  0.47831201     0.09820
H1023       H  0.54758469  0.43485768  0.02189038     0.07840
Br1024     Br  0.56696253  0.39255708  0.03391008    -0.02760
C1025       C  0.96815492  0.59784142  0.24114509    -0.09400
C1026       C  0.99811100  0.60825297  0.25035333     0.06800
C1027       C  0.52679169  0.59630877  0.25951306    -0.03170
C1028       C  0.52517731  0.57466139  0.25853141    -0.07620
C1029       C  0.99521192  0.56425984  0.24935448     0.05910
C1030       C  0.96629995  0.57619711  0.24073080    -0.02640
Br1031     Br  0.92357689  0.56442269  0.22718843    -0.02340
H1032       H  0.94589129  0.60658493  0.23384884     0.09820
H1033       H  0.54740787  0.56588185  0.26586315     0.07840
Br1034     Br  0.56804767  0.60794305  0.27626658    -0.02760
C1035       C  0.51987761  0.59705768  0.01970759    -0.09400
C1036       C  0.99960776  0.60771995  0.99856778     0.06800
C1037       C  0.97930369  0.59631161  0.47807004    -0.03170
C1038       C  0.97903208  0.57465575  0.47942935    -0.07620
C1039       C  0.99922185  0.56402125  0.50060216     0.05910
C1040       C  0.51972405  0.57538676  0.02094947    -0.02640
Br1041     Br  0.54604650  0.56216318  0.05215870    -0.02340
H1042       H  0.53533986  0.60563601  0.03575704     0.09820
H1043       H  0.96362624  0.56604871  0.46336553     0.07840
Br1044     Br  0.95366487  0.60928934  0.44621721    -0.02760
C1045       C  0.77426101  0.09762853  0.25942937    -0.09400
C1046       C  0.74444155  0.10790270  0.24952911     0.06800
C1047       C  0.71627623  0.09584620  0.23953281    -0.03170
C1048       C  0.71820177  0.07422053  0.24040625    -0.07620
C1049       C  0.74797319  0.06393446  0.25037418     0.05910
C1050       C  0.77640395  0.07598096  0.25980622    -0.02640
Br1051     Br  0.81869344  0.06430896  0.27447610    -0.02340
H1052       H  0.79613308  0.10648057  0.26733600     0.09820
H1053       H  0.69632875  0.06537096  0.23244994     0.07840
Br1054     Br  0.67537061  0.10731885  0.22185449    -0.02760
C1055       C  0.77400445  0.92538600  0.26197657    -0.09400
C1056       C  0.74584439  0.93591682  0.24933146     0.06800
C1057       C  0.71832305  0.92417185  0.23736682    -0.03170
C1058       C  0.71965206  0.90250728  0.23814374    -0.07620
C1059       C  0.74786913  0.89198892  0.25072164     0.05910
C1060       C  0.77512176  0.90373801  0.26309589    -0.02640
Br1061     Br  0.81327065  0.89164777  0.28429734    -0.02340
H1062       H  0.79504984  0.93406454  0.27183784     0.09820
H1063       H  0.69857225  0.89382110  0.22837337     0.07840
Br1064     Br  0.67879964  0.93639106  0.21830724    -0.02760
C1065       C  0.77725834  0.00371339  0.35827810    -0.09400
C1066       C  0.74628049  0.99957202  0.34299282     0.06800
C1067       C  0.71655902  0.99563235  0.36024468    -0.03170
C1068       C  0.71846983  0.99597772  0.39167197    -0.07620
C1069       C  0.74944308  0.00011050  0.40696478     0.05910
C1070       C  0.77916872  0.00406694  0.38971294    -0.02640
Br1071     Br  0.82325369  0.01074855  0.40680895    -0.02340
H1072       H  0.80037615  0.00695015  0.34569817     0.09820
H1073       H  0.69534261  0.99274505  0.40423850     0.07840
Br1074     Br  0.67247113  0.98896707  0.34315064    -0.02760
C1075       C  0.71906884  0.99385240  0.14137158    -0.09400
C1076       C  0.74869065  0.00033594  0.15693347     0.06800
C1077       C  0.77764567  0.00650234  0.14006061    -0.03170
C1078       C  0.77641542  0.00592262  0.10861378    -0.07620
C1079       C  0.74678980  0.99943888  0.09304675     0.05910
C1080       C  0.71783898  0.99327160  0.10992590    -0.02640
Br1081     Br  0.67617163  0.98288066  0.09212525    -0.02340
H1082       H  0.69668252  0.98883779  0.15375507     0.09820
H1083       H  0.79881196  0.01092720  0.09623692     0.07840
Br1084     Br  0.81931342  0.01688553  0.15788211    -0.02760
C1085       C  0.72121772  0.09779346  0.00298772    -0.09400
C1086       C  0.75294110  0.10815625  0.00047919     0.06800
C1087       C  0.78295188  0.09578495  0.49775788    -0.03170
C1088       C  0.78043780  0.07414837  0.49818282    -0.07620
C1089       C  0.74870864  0.06394543  0.00045709     0.05910
C1090       C  0.71870580  0.07617341  0.00258897    -0.02640
Br1091     Br  0.67300765  0.06500866  0.00497005    -0.02340
H1092       H  0.69767793  0.10643414  0.00538149     0.09820
H1093       H  0.80381324  0.06519789  0.49609939     0.07840
Br1094     Br  0.82858978  0.10608759  0.49149716    -0.02760
C1095       C  0.77934841  0.92537663  0.00612373    -0.09400
C1096       C  0.74838092  0.93566842  0.99959928     0.06800
C1097       C  0.71886150  0.92354997  0.49346538    -0.03170
C1098       C  0.72115586  0.90191629  0.49343522    -0.07620
C1099       C  0.75209915  0.89159840  0.00002478     0.05910
C1100       C  0.78143914  0.90373522  0.00684126    -0.02640
Br1101     Br  0.82469878  0.89255484  0.01995064    -0.02340
H1102       H  0.80219729  0.93422993  0.01151773     0.09820
H1103       H  0.69829504  0.89312945  0.48797524     0.07840
Br1104     Br  0.67434805  0.93495278  0.48455724    -0.02760
O1105       O  0.77669660  0.03087519  0.00086916    -0.73190
O1106       O  0.77659985  0.96864611  0.00030396    -0.74170
O1107       O  0.77747397  0.99995708  0.95542249    -0.62790
O1108       O  0.77587372  0.99950977  0.54578763    -0.71200
O1109       O  0.71911121  0.99972342  0.54461553    -0.70750
O1110       O  0.72075510  0.99998484  0.95440889    -0.62000
O1111       O  0.71988186  0.96875264  0.49941801    -0.74510
O1112       O  0.72001095  0.03088816  0.49963011    -0.73290
Cu1113     Cu  0.77863922  0.99975139  0.00063685     1.04560
Cu1114     Cu  0.71800651  0.99983496  0.49948104     1.04330
C1115       C  0.74831472  0.04083311  0.00033952     0.93010
C1116       C  0.74814284  0.95876001  0.49970601     0.92150
C1117       C  0.74937581  0.00008470  0.94048857     0.84300
C1118       C  0.74717020  0.99946199  0.55959152     0.90570
O1119       O  0.77628569  0.03080347  0.75064777    -0.73190
O1120       O  0.77480688  0.96855503  0.75014792    -0.74170
O1121       O  0.77638619  0.99985694  0.70533166    -0.62790
O1122       O  0.77490124  0.99944916  0.79552413    -0.71200
O1123       O  0.71817627  0.99991801  0.79457665    -0.70750
O1124       O  0.71961596  0.00038399  0.70419864    -0.62000
O1125       O  0.71799621  0.96905565  0.74908066    -0.74510
O1126       O  0.71951400  0.03115734  0.74972215    -0.73290
Cu1127     Cu  0.77755629  0.99964891  0.75045173     1.04560
Cu1128     Cu  0.71686410  0.00014079  0.74936033     1.04330
C1129       C  0.74809154  0.04089170  0.75038123     0.93010
C1130       C  0.74612511  0.95891780  0.74935730     0.92150
C1131       C  0.74831662  0.00029062  0.69038135     0.84300
C1132       C  0.74630223  0.99957581  0.80947342     0.90570
N1133       N  0.81936270  0.22049266  0.50173606    -0.27530
N1134       N  0.80248376  0.23823518  0.00052659    -0.35390
C1135       C  0.82524956  0.25391253  0.99976335     0.00810
C1136       C  0.85794906  0.24554332  0.50042521     0.06830
C1137       C  0.85325451  0.22433995  0.00160377    -0.06270
H1138       H  0.81846114  0.27015697  0.99884582     0.07500
H1139       H  0.87295496  0.21254485  0.00254519     0.08700
Cu1140     Cu  0.74934122  0.23997868  0.99997059     0.44170
Cu1141     Cu  0.79576543  0.19186390  0.50377760     0.41990
Cu1142     Cu  0.70359248  0.19055614  0.49713398     0.43880
N1143       N  0.69630769  0.23717049  0.49954310    -0.34920
N1144       N  0.67966444  0.21929854  0.49870292    -0.29170
C1145       C  0.64568428  0.22304549  0.49878116    -0.05270
C1146       C  0.64078506  0.24426418  0.49954437     0.06940
C1147       C  0.67338624  0.25273073  0.00002026     0.00740
H1148       H  0.62605930  0.21118894  0.49805378     0.08390
H1149       H  0.68004221  0.26900399  0.00059078     0.07470
N1150       N  0.73407084  0.16415508  0.49834456    -0.36370
N1151       N  0.76757146  0.16476517  0.50247845    -0.28550
C1152       C  0.77975055  0.14534638  0.50436818    -0.03790
C1153       C  0.75277155  0.13144676  0.50027106     0.04820
C1154       C  0.72413677  0.14424650  0.49670066     0.02920
H1155       H  0.80616968  0.14216798  0.50931769     0.08020
H1156       H  0.69777982  0.13960491  0.49316346     0.06860
N1157       N  0.67507089  0.21912877  0.75274245    -0.27530
N1158       N  0.69166926  0.23695966  0.75099021    -0.35390
C1159       C  0.66868094  0.25248073  0.74982316     0.00810
C1160       C  0.63611924  0.24394882  0.75075340     0.06830
C1161       C  0.64110441  0.22278861  0.75253536    -0.06270
H1162       H  0.67524005  0.26874438  0.74841081     0.07500
H1163       H  0.62156404  0.21091126  0.75383683     0.08700
Cu1164     Cu  0.74473064  0.23930118  0.75007191     0.44170
Cu1165     Cu  0.69911696  0.19061923  0.75520761     0.41990
Cu1166     Cu  0.79105008  0.19047656  0.74659402     0.43880
N1167       N  0.79780625  0.23706534  0.74923739    -0.34920
N1168       N  0.81463832  0.21929247  0.74807756    -0.29170
C1169       C  0.84855412  0.22318744  0.74811507    -0.05270
C1170       C  0.85325627  0.24441494  0.74921952     0.06940
C1171       C  0.82057166  0.25274167  0.74990094     0.00740
H1172       H  0.86827661  0.21141204  0.74724525     0.08390
H1173       H  0.81377105  0.26897964  0.75083127     0.07470
N1174       N  0.76156105  0.16373260  0.74832606    -0.36370
N1175       N  0.72811300  0.16385311  0.75289617    -0.28550
C1176       C  0.71670134  0.14423144  0.75431555    -0.03790
C1177       C  0.74413386  0.13095773  0.74956756     0.04820
C1178       C  0.77224124  0.14398643  0.74620477     0.02920
H1179       H  0.69043402  0.14014219  0.75917102     0.08020
H1180       H  0.79860245  0.13947166  0.74244903     0.06860
N1181       N  0.67997632  0.78050673  0.50250796    -0.27530
N1182       N  0.69666404  0.76269460  0.50099401    -0.35390
C1183       C  0.67379114  0.74709510  0.49999357     0.00810
C1184       C  0.64116323  0.75548256  0.50083298     0.06830
C1185       C  0.64600961  0.77669334  0.50238033    -0.06270
H1186       H  0.68049279  0.73085495  0.49869816     0.07500
H1187       H  0.62635532  0.78850346  0.50341652     0.08700
Cu1188     Cu  0.74970260  0.76015683  0.50003055     0.44170
Cu1189     Cu  0.70396791  0.80923577  0.50436150     0.41990
Cu1190     Cu  0.79577587  0.80842213  0.49379098     0.43880
N1191       N  0.80280180  0.76210369  0.49883892    -0.34920
N1192       N  0.81959213  0.77983781  0.49659299    -0.29170
C1193       C  0.85351351  0.77603440  0.49682176    -0.05270
C1194       C  0.85828722  0.75487396  0.49916642     0.06940
C1195       C  0.82562110  0.74649406  0.50038505     0.00740
H1196       H  0.87317726  0.78782425  0.49531006     0.08390
H1197       H  0.81888449  0.73028284  0.50232237     0.07470
N1198       N  0.76729103  0.83538476  0.49649012    -0.36370
N1199       N  0.73408383  0.83575551  0.50214212    -0.28550
C1200       C  0.72394737  0.85558526  0.50456974    -0.03790
C1201       C  0.75211765  0.86846528  0.50011432     0.04820
C1202       C  0.77900671  0.85491841  0.49449193     0.02920
H1203       H  0.69784902  0.86023013  0.50922175     0.08020
H1204       H  0.80506603  0.85868097  0.48852077     0.06860
N1205       N  0.67568166  0.78114402  0.75195203    -0.27530
N1206       N  0.69229302  0.76329707  0.75070005    -0.35390
C1207       C  0.66932884  0.74774939  0.74968985     0.00810
C1208       C  0.63675230  0.75622714  0.75032896     0.06830
C1209       C  0.64170616  0.77741630  0.75178602    -0.06270
H1210       H  0.67593050  0.73149349  0.74840741     0.07500
H1211       H  0.62212276  0.78928488  0.75240632     0.08700
Cu1212     Cu  0.74533248  0.76067614  0.74989975     0.44170
Cu1213     Cu  0.69963098  0.80983365  0.75296429     0.41990
Cu1214     Cu  0.79176980  0.80900484  0.74540857     0.43880
N1215       N  0.79845352  0.76255215  0.74894985    -0.34920
N1216       N  0.81534792  0.78027935  0.74717357    -0.29170
C1217       C  0.84924428  0.77639651  0.74742014    -0.05270
C1218       C  0.85390489  0.75520385  0.74941679     0.06940
C1219       C  0.82118507  0.74688211  0.75032611     0.00740
H1220       H  0.86897889  0.78817029  0.74640799     0.08390
H1221       H  0.81435323  0.73067297  0.75202232     0.07470
N1222       N  0.76323866  0.83600496  0.74774380    -0.36370
N1223       N  0.72962948  0.83635488  0.75142090    -0.28550
C1224       C  0.71920636  0.85617088  0.75322941    -0.03790
C1225       C  0.74766855  0.86897612  0.75075641     0.04820
C1226       C  0.77505854  0.85556105  0.74681815     0.02920
H1227       H  0.69280894  0.86089875  0.75621656     0.08020
H1228       H  0.80158913  0.85957322  0.74290859     0.06860
N1229       N  0.56985504  0.71897477  0.50061615    -0.27530
N1230       N  0.55292393  0.73673573  0.50031552    -0.35390
C1231       C  0.57562358  0.75245835  0.50024055     0.00810
C1232       C  0.60836133  0.74417210  0.50044919     0.06830
C1233       C  0.60375149  0.72292449  0.50064267    -0.06270
H1234       H  0.56874559  0.76869934  0.50010760     0.07500
H1235       H  0.62353153  0.71116536  0.50097896     0.08700
Cu1236     Cu  0.99978987  0.73886920  0.50013305     0.44170
Cu1237     Cu  0.54646522  0.69008485  0.50122720     0.41990
Cu1238     Cu  0.95385716  0.69010325  0.49979912     0.43880
N1239       N  0.94667599  0.73657049  0.50010957    -0.34920
N1240       N  0.92995645  0.71873484  0.50018130    -0.29170
C1241       C  0.89600677  0.72248337  0.50010959    -0.05270
C1242       C  0.89115345  0.74369655  0.49988232     0.06940
C1243       C  0.92378630  0.75216467  0.49989300     0.00740
H1244       H  0.87637885  0.71062003  0.49994540     0.08390
H1245       H  0.93046254  0.76843855  0.49965823     0.07470
N1246       N  0.98315738  0.66336089  0.49944235    -0.36370
N1247       N  0.51707430  0.66326840  0.50048795    -0.28550
C1248       C  0.52814074  0.64351891  0.50035236    -0.03790
C1249       C  0.99980813  0.63060899  0.49864004     0.04820
C1250       C  0.97172756  0.64372042  0.49838321     0.02920
H1251       H  0.55482774  0.63890356  0.50109083     0.08020
H1252       H  0.94492669  0.63933372  0.49792185     0.06860
N1253       N  0.56524781  0.72003528  0.74649524    -0.27530
N1254       N  0.54841499  0.73773976  0.74874123    -0.35390
C1255       C  0.57119915  0.75337862  0.75038712     0.00810
C1256       C  0.60388156  0.74504884  0.74919947     0.06830
C1257       C  0.59915371  0.72389072  0.74675878    -0.06270
H1258       H  0.56442861  0.76956968  0.75244414     0.07500
H1259       H  0.61884571  0.71212291  0.74537990     0.08700
Cu1260     Cu  0.99531742  0.73960125  0.74996388     0.44170
Cu1261     Cu  0.54157762  0.69138240  0.74405071     0.41990
Cu1262     Cu  0.94975509  0.69042897  0.75425984     0.43880
N1263       N  0.94229479  0.73694629  0.75099345    -0.34920
N1264       N  0.92568812  0.71910000  0.75265549    -0.29170
C1265       C  0.89170482  0.72282029  0.75243689    -0.05270
C1266       C  0.88675810  0.74400416  0.75056563     0.06940
C1267       C  0.91934347  0.75247841  0.74971075     0.00740
H1268       H  0.87211216  0.71095622  0.75336472     0.08390
H1269       H  0.92596236  0.76872376  0.74810014     0.07470
N1270       N  0.97985497  0.66395303  0.75206231    -0.36370
N1271       N  0.51318456  0.66436948  0.74690480    -0.28550
C1272       C  0.52498945  0.64484783  0.74527847    -0.03790
C1273       C  0.99797127  0.63132082  0.75048076     0.04820
C1274       C  0.96966699  0.64411002  0.75435101     0.02920
H1275       H  0.55121700  0.64100300  0.73993336     0.08020
H1276       H  0.94349056  0.63936822  0.75853322     0.06860
N1277       N  0.92982653  0.28157994  0.00129699    -0.27530
N1278       N  0.94638910  0.26370630  0.00047812    -0.35390
C1279       C  0.92337771  0.24817730  0.99996898     0.00810
C1280       C  0.89083035  0.25670887  0.00041353     0.06830
C1281       C  0.89584218  0.27790243  0.00122294    -0.06270
H1282       H  0.92992663  0.23189444  0.99930867     0.07500
H1283       H  0.87630183  0.28979665  0.00184532     0.08700
Cu1284     Cu  0.49942706  0.26106084  0.99989890     0.44170
Cu1285     Cu  0.95386909  0.31019827  0.00241499     0.41990
Cu1286     Cu  0.54605259  0.30947194  0.99594782     0.43880
N1287       N  0.55254988  0.26295142  0.99911114    -0.34920
N1288       N  0.56949763  0.28068034  0.99771208    -0.29170
C1289       C  0.60338115  0.27675029  0.99784519    -0.05270
C1290       C  0.60797311  0.25552932  0.99927290     0.06940
C1291       C  0.57523005  0.24723950  0.00003452     0.00740
H1292       H  0.62315475  0.28850120  0.99686156     0.08390
H1293       H  0.56834540  0.23101608  0.00120684     0.07470
N1294       N  0.51740653  0.33647092  0.99790844    -0.36370
N1295       N  0.98375509  0.33673283  0.00127371    -0.28550
C1296       C  0.97313630  0.35650621  0.00296687    -0.03790
C1297       C  0.50148968  0.36940918  0.00068534     0.04820
C1298       C  0.52906085  0.35607112  0.99701873     0.02920
H1299       H  0.94665697  0.36113609  0.00571889     0.08020
H1300       H  0.55559420  0.36015516  0.99329477     0.06860
N1301       N  0.92486467  0.28073510  0.74790193    -0.27530
N1302       N  0.94156022  0.26290074  0.74917716    -0.35390
C1303       C  0.91868904  0.24729913  0.74995387     0.00810
C1304       C  0.88606620  0.25570313  0.74923254     0.06830
C1305       C  0.89090336  0.27692271  0.74800467    -0.06270
H1306       H  0.92539219  0.23104337  0.75093981     0.07500
H1307       H  0.87124040  0.28874003  0.74702776     0.08700
Cu1308     Cu  0.99458913  0.26022356  0.74991349     0.44170
Cu1309     Cu  0.94865996  0.30954134  0.74598951     0.41990
Cu1310     Cu  0.54055468  0.30842588  0.75520474     0.43880
N1311       N  0.54769843  0.26216269  0.75073274    -0.34920
N1312       N  0.56443982  0.27994280  0.75242553    -0.29170
C1313       C  0.59836722  0.27621717  0.75226082    -0.05270
C1314       C  0.60320852  0.25504799  0.75062450     0.06940
C1315       C  0.57057573  0.24657807  0.74968774     0.00740
H1316       H  0.61798212  0.28805545  0.75361170     0.08390
H1317       H  0.56390636  0.23032497  0.74842153     0.07470
N1318       N  0.51228309  0.33545273  0.75330989    -0.36370
N1319       N  0.97897693  0.33602182  0.74793789    -0.28550
C1320       C  0.96911368  0.35592791  0.74576466    -0.03790
C1321       C  0.99759022  0.36868980  0.75022831     0.04820
C1322       C  0.52433435  0.35488287  0.75553706     0.02920
H1323       H  0.94296560  0.36065421  0.74125669     0.08020
H1324       H  0.55054588  0.35826149  0.76153495     0.06860
O1325       O  0.97022095  0.53154845  0.99998498    -0.73190
O1326       O  0.96962490  0.46926559  0.00048876    -0.74170
O1327       O  0.97054202  0.50055355  0.54531348    -0.62790
O1328       O  0.96895877  0.50028801  0.95545355    -0.71200
O1329       O  0.52564233  0.50057877  0.95469390    -0.70750
O1330       O  0.52727100  0.49976298  0.54522159    -0.62000
O1331       O  0.52644406  0.46913837  0.99945046    -0.74510
O1332       O  0.52719643  0.53124308  0.00077811    -0.73290
Cu1333     Cu  0.96789768  0.50041875  0.00034291     1.04560
Cu1334     Cu  0.52863869  0.50017583  0.00000520     1.04330
C1335       C  0.99887399  0.54119237  0.00060917     0.93010
C1336       C  0.49795423  0.45932199  0.99970540     0.92150
C1337       C  0.49904991  0.50020690  0.55967837     0.84300
C1338       C  0.49685356  0.50042768  0.94063755     0.90570
O1339       O  0.96684140  0.53126991  0.75024947    -0.73190
O1340       O  0.96650490  0.46925405  0.75038327    -0.74170
O1341       O  0.96808179  0.50026287  0.79559616    -0.62790
O1342       O  0.96609084  0.50027703  0.70504420    -0.71200
O1343       O  0.52281276  0.49991712  0.70478987    -0.70750
O1344       O  0.52474883  0.50036553  0.79462167    -0.62000
O1345       O  0.52319492  0.46899882  0.75008843    -0.74510
O1346       O  0.52359352  0.53134287  0.74927600    -0.73290
Cu1347     Cu  0.96490899  0.50027123  0.75034538     1.04560
Cu1348     Cu  0.52553075  0.50015709  0.74967815     1.04330
C1349       C  0.99512192  0.54121881  0.74950708     0.93010
C1350       C  0.99464790  0.45917750  0.75033696     0.92150
C1351       C  0.99692801  0.50032243  0.80954700     0.84300
C1352       C  0.99427168  0.50000150  0.69049988     0.90570
C1353       C  0.96646796  0.50013773  0.85860459    -0.09400
C1354       C  0.99778518  0.50032749  0.84308155     0.06800
C1355       C  0.52865823  0.50048432  0.86014640    -0.03170
C1356       C  0.52741745  0.50053744  0.89158486    -0.07620
C1357       C  0.99608854  0.50038449  0.90710213     0.05910
C1358       C  0.96522451  0.50013457  0.89002860    -0.02640
Br1359     Br  0.92000502  0.49970910  0.90716548    -0.02340
H1360       H  0.94243298  0.49996344  0.84623119     0.09820
H1361       H  0.55144454  0.50068086  0.90397158     0.07840
Br1362     Br  0.57385077  0.50059354  0.84295346    -0.02760
C1363       C  0.96736095  0.49654727  0.60781545    -0.09400
C1364       C  0.99872354  0.50017469  0.59316288     0.06800
C1365       C  0.52835206  0.50372809  0.61098627    -0.03170
C1366       C  0.52594216  0.50357573  0.64234937    -0.07620
C1367       C  0.99457674  0.49995880  0.65700833     0.05910
C1368       C  0.96497009  0.49635353  0.63918849    -0.02640
Br1369     Br  0.92041467  0.49040535  0.65542789    -0.02340
H1370       H  0.94428240  0.49361979  0.59478881     0.09820
H1371       H  0.54903254  0.50649855  0.65536288     0.07840
Br1372     Br  0.57301606  0.50947812  0.59480344    -0.02360
C1373       C  0.96659516  0.40238174  0.75414738    -0.09400
C1374       C  0.99795372  0.39190420  0.75031866     0.06800
C1375       C  0.52796226  0.40403696  0.74613711    -0.03170
C1376       C  0.52595862  0.42567920  0.74674191    -0.07620
C1377       C  0.99459834  0.43606929  0.75043777     0.05910
C1378       C  0.96447513  0.42402109  0.75379813    -0.02640
Br1379     Br  0.91915659  0.43545701  0.75790247    -0.02340
H1380       H  0.94313124  0.39376363  0.75754514     0.09820
H1381       H  0.54934624  0.43447213  0.74353048     0.07840
Br1382     Br  0.57256361  0.39316891  0.73701542    -0.02760
C1383       C  0.97285723  0.40276602  0.98813958    -0.09400
C1384       C  0.50133690  0.39243100  0.00062119     0.06800
C1385       C  0.52837620  0.40437176  0.51298503    -0.03170
C1386       C  0.52671433  0.42601569  0.51204677    -0.07620
C1387       C  0.49822446  0.43633605  0.99960031     0.05910
C1388       C  0.97100846  0.42441684  0.98755030    -0.02640
Br1389     Br  0.93132689  0.43645644  0.96852410    -0.02340
H1390       H  0.95196036  0.39395398  0.97831194     0.09820
H1391       H  0.54758476  0.43485800  0.52189028     0.07840
Br1392     Br  0.56696261  0.39255738  0.53391000    -0.02760
C1393       C  0.96815493  0.59784141  0.74114509    -0.09400
C1394       C  0.99811102  0.60825295  0.75035332     0.06800
C1395       C  0.52679168  0.59630876  0.75951307    -0.03170
C1396       C  0.52517730  0.57466138  0.75853141    -0.07620
C1397       C  0.99521192  0.56425982  0.74935447     0.05910
C1398       C  0.96629996  0.57619709  0.74073080    -0.02640
Br1399     Br  0.92357689  0.56442268  0.72718845    -0.02340
H1400       H  0.94589130  0.60658492  0.73384885     0.09820
H1401       H  0.54740786  0.56588184  0.76586316     0.07840
Br1402     Br  0.56804765  0.60794304  0.77626660    -0.02760
C1403       C  0.51987772  0.59705814  0.51970771    -0.09400
C1404       C  0.99960786  0.60772052  0.49856801     0.06800
C1405       C  0.97930397  0.59631096  0.97806963    -0.03170
C1406       C  0.97903257  0.57465512  0.97942897    -0.07620
C1407       C  0.99922221  0.56402073  0.00060197     0.05910
C1408       C  0.51972391  0.57538721  0.52094959    -0.02640
Br1409     Br  0.54604642  0.56216354  0.55215869    -0.02340
H1410       H  0.53534022  0.60563639  0.53575706     0.09820
H1411       H  0.96362694  0.56604802  0.96336507     0.07840
Br1412     Br  0.95366533  0.60928859  0.94621661    -0.02760
C1413       C  0.77426100  0.09762852  0.75942937    -0.09400
C1414       C  0.74444153  0.10790269  0.74952913     0.06800
C1415       C  0.71627622  0.09584618  0.73953283    -0.03170
C1416       C  0.71820176  0.07422051  0.74040627    -0.07620
C1417       C  0.74797319  0.06393445  0.75037419     0.05910
C1418       C  0.77640395  0.07598095  0.75980622    -0.02640
Br1419     Br  0.81869346  0.06430895  0.77447608    -0.02340
H1420       H  0.79613307  0.10648055  0.76733600     0.09820
H1421       H  0.69632874  0.06537094  0.73244997     0.07840
Br1422     Br  0.67537058  0.10731883  0.72185454    -0.02760
C1423       C  0.77400447  0.92538598  0.76197657    -0.09400
C1424       C  0.74584441  0.93591680  0.74933145     0.06800
C1425       C  0.71832307  0.92417184  0.73736681    -0.03170
C1426       C  0.71965208  0.90250726  0.73814372    -0.07620
C1427       C  0.74786915  0.89198890  0.75072164     0.05910
C1428       C  0.77512177  0.90373799  0.76309589    -0.02640
Br1429     Br  0.81327065  0.89164775  0.78429736    -0.02340
H1430       H  0.79504985  0.93406452  0.77183785     0.09820
H1431       H  0.69857228  0.89382108  0.72837335     0.07840
Br1432     Br  0.67879968  0.93639105  0.71830722    -0.02760
C1433       C  0.77725837  0.00371337  0.85827810    -0.09400
C1434       C  0.74628052  0.99957200  0.84299282     0.06800
C1435       C  0.71655905  0.99563233  0.86024468    -0.03170
C1436       C  0.71846987  0.99597768  0.89167197    -0.07620
C1437       C  0.74944313  0.00011043  0.90696479     0.05910
C1438       C  0.77916876  0.00406689  0.88971295    -0.02640
Br1439     Br  0.82325373  0.01074850  0.90680896    -0.02340
H1440       H  0.80037618  0.00695013  0.84569817     0.09820
H1441       H  0.69534265  0.99274500  0.90423851     0.07840
Br1442     Br  0.67247114  0.98896709  0.84315065    -0.02760
C1443       C  0.71906884  0.99385241  0.64137157    -0.09400
C1444       C  0.74869065  0.00033595  0.65693347     0.06800
C1445       C  0.77764567  0.00650235  0.64006061    -0.03170
C1446       C  0.77641540  0.00592267  0.60861378    -0.07620
C1447       C  0.74678977  0.99943895  0.59304675     0.05910
C1448       C  0.71783896  0.99327164  0.60992590    -0.02640
Br1449     Br  0.67617161  0.98288070  0.59212524    -0.02340
H1450       H  0.69668252  0.98883779  0.65375507     0.09820
H1451       H  0.79881194  0.01092726  0.59623692     0.07840
Br1452     Br  0.81931343  0.01688552  0.65788211    -0.02760
C1453       C  0.72121767  0.09779356  0.50298771    -0.09400
C1454       C  0.75294106  0.10815634  0.50047919     0.06800
C1455       C  0.78295192  0.09578486  0.99775788    -0.03170
C1456       C  0.78043785  0.07414827  0.99818282    -0.07620
C1457       C  0.74870858  0.06394553  0.50045708     0.05910
C1458       C  0.71870575  0.07617351  0.50258897    -0.02640
Br1459     Br  0.67300759  0.06500876  0.50497005    -0.02340
H1460       H  0.69767789  0.10643424  0.50538149     0.09820
H1461       H  0.80381329  0.06519780  0.99609939     0.07840
Br1462     Br  0.82858981  0.10608751  0.99149716    -0.02760
C1463       C  0.77934858  0.92537693  0.50612384    -0.09400
C1464       C  0.74838101  0.93566861  0.49959932     0.06800
C1465       C  0.71886130  0.92354988  0.99346535    -0.03170
C1466       C  0.72115545  0.90191618  0.99343520    -0.07620
C1467       C  0.75209969  0.89159864  0.50002477     0.05910
C1468       C  0.78143952  0.90373555  0.50684135    -0.02640
Br1469     Br  0.82469919  0.89255530  0.51995092    -0.02340
H1470       H  0.80219737  0.93423030  0.51151790     0.09820
H1471       H  0.69829453  0.89312944  0.98797523     0.07840
Br1472     Br  0.67434795  0.93495281  0.98455719    -0.02760
loop_ 
_geom_bond_atom_site_label_1 
_geom_bond_atom_site_label_2 
_geom_bond_distance 
_geom_bond_site_symmetry_2 
_ccdc_geom_bond_type 
O1           Cu9   2.010   1_545  S
O1           C11   1.279       .  A
O2           Cu9   2.009       .  S
O2          C380   1.279       .  A
O3           Cu9   2.011       .  S
O3           C13   1.277   1_565  A
O4         Cu377   2.011       .  S
O4           C14   1.279       .  A
O5          Cu10   2.007   1_554  S
O5           C14   1.276       .  A
O6         Cu378   2.008       .  S
O6           C13   1.279   1_565  A
O7          Cu10   2.007       .  S
O7           C12   1.276       .  A
O8          Cu10   2.005   1_545  S
O8          C379   1.276   1_556  A
Cu9         O372   2.011       .  S
Cu9        Cu378   2.362       .  S
Cu10        O374   2.008       .  S
Cu10       Cu377   2.362   1_556  S
C11         O376   1.276       .  A
C11         C721   1.492       .  S
C12         O370   1.279   1_556  A
C12         C360   1.490       .  S
C13         C333   1.491       .  S
C14         C343   1.488       .  S
O15         Cu23   2.011   1_545  S
O15          C25   1.277       .  A
O16         Cu23   2.009       .  S
O16          C26   1.279       .  A
O17         Cu23   2.007       .  S
O17          C27   1.276   1_565  A
O18         Cu23   2.007       .  S
O18          C28   1.278       .  A
O19         Cu24   2.011   1_565  S
O19          C28   1.277       .  A
O20         Cu24   2.012       .  S
O20          C27   1.279       .  A
O21         Cu24   2.007   1_565  S
O21          C26   1.276       .  A
O22         Cu24   2.004       .  S
O22          C25   1.278       .  A
Cu23        Cu24   2.365   1_565  S
C25         C313   1.487       .  S
C26         C320   1.484       .  S
C27         C340   1.487       .  S
C28         C330   1.490       .  S
N29         Cu37   2.065       .  S
N29         N398   1.322       .  A
N29         C401   1.343       .  A
N30         Cu36   2.073       .  S
N30         N397   1.322       .  A
N30          C31   1.345       .  A
C31          H34   1.082       .  S
C31         C400   1.384       .  A
C32         C544   1.469       .  S
C32         C399   1.384   1_554  A
C32         C401   1.381       .  A
C33         N397   1.343       .  A
C33          H35   1.082       .  S
C33         C400   1.381       .  A
Cu36        N407   2.074       .  S
Cu37         N47   2.065       .  S
Cu38         N40   2.078       .  S
Cu38         N46   2.078       .  S
N39        Cu404   2.074       .  S
N39          N40   1.323       .  A
N39         C411   1.344   1_556  A
N40          C41   1.346       .  A
C41          H44   1.082       .  S
C41          C42   1.383       .  A
C42         C554   1.471       .  S
C42         C411   1.382   1_556  A
C43         N407   1.344       .  A
C43          H45   1.082       .  S
C43         C410   1.382       .  A
N46          N47   1.317   1_556  A
N46          C50   1.343       .  A
N47          C48   1.343       .  A
C48          H51   1.071       .  S
C48          C49   1.393       .  A
C49         C350   1.503       .  S
C49          C50   1.396   1_554  A
C50          H52   1.080       .  S
N53         Cu61   2.067       .  S
N53          N54   1.322       .  A
N53          C57   1.344       .  A
N54         Cu60   2.073       .  S
N54          C55   1.345       .  A
C55          H58   1.082       .  S
C55          C56   1.383       .  A
C56         C210   1.469       .  S
C56          C57   1.381       .  A
C57          H59   1.082       .  S
Cu60         N63   2.073       .  S
Cu61         N71   2.067       .  S
Cu62         N64   2.075       .  S
Cu62         N70   2.074       .  S
N63          N64   1.323       .  A
N63          C67   1.345       .  A
N64          C65   1.345       .  A
C65          H68   1.082       .  S
C65          C66   1.383       .  A
C66         C200   1.471       .  S
C66          C67   1.383       .  A
C67          H69   1.082       .  S
N70          N71   1.320       .  A
N70          C74   1.344       .  A
N71          C72   1.343       .  A
C72          H75   1.080       .  S
C72          C73   1.387       .  A
C73         C310   1.488       .  S
C73          C74   1.389       .  A
C74          H76   1.082       .  S
N77         Cu85   2.077       .  S
N77          N78   1.323       .  A
N77          C81   1.346       .  A
N78         Cu84   2.073       .  S
N78          C79   1.345   1_554  A
C79          H82   1.082       .  S
C79          C80   1.382   1_556  A
C80         C128   1.471       .  S
C80          C81   1.383       .  A
C81          H83   1.082       .  S
Cu84         N87   2.073   1_554  S
Cu85         N95   2.077       .  S
Cu86         N88   2.068       .  S
Cu86         N94   2.068       .  S
N87          N88   1.322       .  A
N87          C91   1.345   1_556  A
N88          C89   1.344       .  A
C89          H92   1.082       .  S
C89          C90   1.382       .  A
C90         C138   1.470       .  S
C90          C91   1.384   1_556  A
C91          H93   1.082       .  S
N94          N95   1.319   1_556  A
N94          C98   1.343       .  A
N95          C96   1.344       .  A
C96          H99   1.081       .  S
C96          C97   1.391       .  A
C97         C363   1.493       .  S
C97          C98   1.389   1_554  A
C98         H100   1.078       .  S
N101       Cu109   2.073       .  S
N101        N102   1.323       .  A
N101        C105   1.345       .  A
N102       Cu108   2.074       .  S
N102        C103   1.344       .  A
C103        H106   1.082       .  S
C103        C104   1.383       .  A
C104        C152   1.470       .  S
C104        C105   1.382       .  A
C105        H107   1.082       .  S
Cu108       N111   2.073       .  S
Cu109       N119   2.073       .  S
Cu110       N112   2.070       .  S
Cu110       N118   2.070       .  S
N111        N112   1.322       .  A
N111        C115   1.346       .  A
N112        C113   1.344       .  A
C113        H116   1.082       .  S
C113        C114   1.382       .  A
C114        C162   1.471       .  S
C114        C115   1.384       .  A
C115        H117   1.082       .  S
N118        N119   1.321       .  A
N118        C122   1.344       .  A
N119        C120   1.345       .  A
C120        H123   1.082       .  S
C120        C121   1.387       .  A
C121        C323   1.485       .  S
C121        C122   1.386       .  A
C122        H124   1.080       .  S
N125       Cu133   2.075       .  S
N125        N126   1.323       .  A
N125        C129   1.345       .  A
N126       Cu868   2.074   1_455  S
N126        C127   1.345       .  A
C127        H130   1.082       .  S
C127        C128   1.383       .  A
C128        C129   1.383       .  A
C129        H131   1.082       .  S
Cu132       N135   2.074       .  S
Cu132       N862   2.074       .  S
Cu133       N143   2.075       .  S
Cu134       N136   2.070   1_556  S
Cu134       N142   2.070       .  S
N135        N136   1.322       .  A
N135        C139   1.345   1_554  A
N136        C137   1.345       .  A
C137        H140   1.082   1_554  S
C137        C138   1.382   1_554  A
C138        C139   1.383       .  A
C139        H141   1.082       .  S
N142        N879   1.322   1_556  A
N142        C146   1.344       .  A
N143        N878   1.322   1_454  A
N143        C144   1.346       .  A
C144        H147   1.082       .  S
C144        C881   1.384   1_454  A
C145        C300   1.477       .  S
C145        C146   1.383       .  A
C145        C880   1.384   1_556  A
C146        H148   1.082       .  S
N149       Cu157   2.068       .  S
N149        N150   1.322       .  A
N149        C153   1.344       .  A
N150       Cu892   2.073   1_455  S
N150        C151   1.345       .  A
C151        H154   1.082       .  S
C151        C152   1.384       .  A
C152        C153   1.382       .  A
C153        H155   1.082       .  S
Cu156       N159   2.073       .  S
Cu156       N886   2.073       .  S
Cu157       N167   2.068       .  S
Cu158       N160   2.076       .  S
Cu158       N166   2.075       .  S
N159        N160   1.323       .  A
N159        C163   1.344       .  A
N160        C161   1.345       .  A
C161        H164   1.082       .  S
C161        C162   1.383       .  A
C162        C163   1.383       .  A
C163        H165   1.082       .  S
N166        N903   1.320       .  A
N166        C170   1.344       .  A
N167        N902   1.320   1_455  A
N167        C168   1.344       .  A
C168        H171   1.079       .  S
C168        C905   1.387   1_455  A
C169        C290   1.489       .  S
C169        C170   1.389       .  A
C169        C904   1.387       .  A
C170        H172   1.082       .  S
N173       Cu181   2.071       .  S
N173        N174   1.323       .  A
N173        C177   1.345       .  A
N174       Cu916   2.073       .  S
N174        C175   1.344       .  A
C175        H178   1.082       .  S
C175        C176   1.383       .  A
C176        C400   1.469       .  S
C176        C177   1.382       .  A
C177        H179   1.082       .  S
Cu180       N183   2.073   1_655  S
Cu180       N910   2.073       .  S
Cu181       N191   2.071       .  S
Cu182       N184   2.072       .  S
Cu182       N190   2.072       .  S
N183        N184   1.322       .  A
N183        C187   1.346       .  A
N184        C185   1.344       .  A
C185        H188   1.082       .  S
C185        C186   1.382       .  A
C186        C410   1.471       .  S
C186        C187   1.383       .  A
C187        H189   1.082       .  S
N190        N927   1.320   1_455  A
N190        C194   1.344       .  A
N191        N926   1.320       .  A
N191        C192   1.344       .  A
C192        H195   1.082       .  S
C192        C929   1.387       .  A
C193        C280   1.486       .  S
C193        C194   1.387       .  A
C193        C928   1.387   1_455  A
C194        H196   1.080       .  S
N197       Cu205   2.079       .  S
N197        N198   1.323       .  A
N197        C201   1.345       .  A
N198       Cu204   2.073       .  S
N198        C199   1.345       .  A
C199        H202   1.082       .  S
C199        C200   1.382       .  A
C200        C201   1.383       .  A
C201        H203   1.082       .  S
Cu204       N943   2.073       .  S
Cu205       N215   2.078       .  S
Cu206       N208   2.065       .  S
Cu206       N214   2.065       .  S
N207       Cu940   2.073   1_455  S
N207        N208   1.321       .  A
N207        C211   1.345       .  A
N208        C209   1.343       .  A
C209        H212   1.082       .  S
C209        C210   1.381       .  A
C210        C211   1.384       .  A
C211        H213   1.082       .  S
N214        N951   1.318   1_455  A
N214        C218   1.342       .  A
N215        N950   1.318       .  A
N215        C216   1.344       .  A
C216        H219   1.081       .  S
C216        C217   1.395       .  A
C217        C270   1.498       .  S
C217        C954   1.390       .  A
C218        H220   1.076       .  S
C218        C953   1.390   1_455  A
O221       Cu229   2.011       .  S
O221        C231   1.278       .  A
O222       Cu229   2.012       .  S
O222        C968   1.278       .  A
O223       Cu597   2.002       .  S
O223        C969   1.278       .  A
O224       Cu229   1.997       .  S
O224        C970   1.274       .  A
O225       Cu230   2.018       .  S
O225        C234   1.280   1_455  A
O226       Cu598   2.012       .  S
O226        C233   1.277   1_455  A
O227       Cu230   2.005       .  S
O227        C232   1.278   1_455  A
O228       Cu230   2.006       .  S
O228        C967   1.277   1_455  A
Cu229       O591   2.002       .  S
Cu229      Cu966   2.366       .  S
Cu230       O594   2.012       .  S
Cu230      Cu965   2.366   1_455  S
C231        O964   1.277       .  A
C231        C303   1.473       .  S
C232        O958   1.278       .  A
C232        C283   1.483       .  S
C233        O959   1.278       .  A
C233        C996   1.489       .  S
C234        O960   1.274       .  A
C234        C989   1.491       .  S
O235       Cu243   2.002       .  S
O235        C245   1.275       .  A
O236       Cu243   2.003       .  S
O236        C246   1.275       .  A
O237       Cu243   2.015       .  S
O237        C247   1.280       .  A
O238       Cu243   2.015       .  S
O238        C248   1.278       .  A
O239       Cu244   1.998       .  S
O239        C984   1.277   1_455  A
O240       Cu244   1.999       .  S
O240        C983   1.274   1_455  A
O241       Cu244   2.013       .  S
O241        C982   1.280   1_455  A
O242       Cu244   2.014       .  S
O242        C981   1.280   1_455  A
Cu243      Cu980   2.362       .  S
Cu244      Cu979   2.362   1_455  S
C245        O978   1.280       .  A
C245        C293   1.487       .  S
C246        O977   1.280       .  A
C246        C273   1.491       .  S
C247        O976   1.274       .  A
C247        C250   1.491       .  S
C248        O975   1.277       .  A
C248        C263   1.489       .  S
C249        H256   1.083       .  S
C249        C250   1.405       .  A
C249        C254   1.398       .  A
C250        C987   1.418       .  A
C251        C252   1.399       .  A
C251        C986   1.418   1_455  A
C251       Br258   1.924       .  S
C252        H257   1.083       .  S
C252        C989   1.406   1_455  A
C253        C970   1.491       .  S
C253        C254   1.418       .  A
C253        C988   1.406       .  A
C254       Br255   1.924       .  S
C259        H266   1.083       .  S
C259        C260   1.407       .  A
C259        C264   1.399       .  A
C260        C969   1.489       .  S
C260        C997   1.415       .  A
C261        C262   1.398       .  A
C261        C996   1.415   1_455  A
C261       Br268   1.923       .  S
C262        H267   1.083       .  S
C262        C999   1.408   1_455  A
C263        C264   1.414       .  A
C263        C998   1.408       .  A
C264       Br265   1.922       .  S
C269        H276   1.081       .  S
C269        C270   1.408       .  A
C269        C274   1.399       .  A
C270       C1007   1.420       .  A
C271        C272   1.399       .  A
C271       C1006   1.420   1_455  A
C271       Br278   1.920       .  S
C272        H277   1.083       .  S
C272       C1009   1.404   1_455  A
C273        C274   1.416       .  A
C273       C1008   1.404       .  A
C274       Br275   1.924       .  S
C279        H286   1.083       .  S
C279        C284   1.399       .  A
C279       C1016   1.406       .  A
C280       C1015   1.406   1_455  A
C280        C649   1.414       .  A
C281        C282   1.399       .  A
C281        C648   1.414       .  A
C281       Br288   1.920       .  S
C282        H287   1.083       .  S
C282        C651   1.405   1_454  A
C283        C650   1.405   1_655  A
C283       C1020   1.413       .  A
C284       C1019   1.413       .  A
C284       Br285   1.921       .  S
C289        H296   1.083       .  S
C289        C290   1.405       .  A
C289        C294   1.399       .  A
C290       C1027   1.415       .  A
C291        C292   1.399       .  A
C291       C1026   1.415   1_455  A
C291       Br298   1.920       .  S
C292        H297   1.083       .  S
C292       C1029   1.405   1_455  A
C293        C294   1.415       .  A
C293       C1028   1.405       .  A
C294       Br295   1.923       .  S
C299        H306   1.083       .  S
C299        C304   1.399       .  A
C299       C1036   1.404   1_454  A
C300       C1035   1.404   1_556  A
C300        C669   1.411       .  A
C301        C302   1.399       .  A
C301        C668   1.411       .  A
C301       Br308   1.920       .  S
C302        H307   1.084       .  S
C302        C303   1.402       .  A
C303       C1408   1.409       .  A
C304       C1407   1.409   1_455  A
C304       Br305   1.920       .  S
C309        H316   1.083       .  S
C309        C310   1.406       .  A
C309        C314   1.400       .  A
C310        C311   1.414       .  A
C311        C312   1.398       .  A
C311       Br318   1.921       .  S
C312        H317   1.083       .  S
C312        C313   1.406       .  A
C313        C314   1.414       .  A
C314       Br315   1.922       .  S
C319        H326   1.083       .  S
C319        C320   1.405       .  A
C319        C324   1.398       .  A
C320        C321   1.414       .  A
C321        C322   1.399       .  A
C321       Br328   1.922       .  S
C322        H327   1.083       .  S
C322        C323   1.405       .  A
C323        C324   1.413       .  A
C324       Br325   1.920       .  S
C329        H336   1.083       .  S
C329        C330   1.407   1_545  A
C329        C334   1.399       .  A
C330        C331   1.416       .  A
C331        C332   1.399       .  A
C331       Br338   1.922       .  S
C332        H337   1.083       .  S
C332        C333   1.407   1_565  A
C333        C334   1.416       .  A
C334       Br335   1.923       .  S
C339        H346   1.083       .  S
C339        C340   1.406   1_565  A
C339        C344   1.399       .  A
C340        C341   1.415       .  A
C341        C342   1.399       .  A
C341       Br348   1.922       .  S
C342        H347   1.083       .  S
C342        C343   1.406   1_545  A
C343        C344   1.415       .  A
C344       Br345   1.922       .  S
C349        H356   1.079       .  S
C349        C350   1.410       .  A
C349        C354   1.399       .  A
C350        C719   1.422   1_554  A
C351        C352   1.400       .  A
C351        C718   1.422       .  A
C351       Br358   1.919       .  S
C352        H357   1.083       .  S
C352        C721   1.404       .  A
C353        C379   1.492       .  S
C353        C354   1.414       .  A
C353        C720   1.404   1_554  A
C354       Br355   1.923       .  S
C359        H366   1.083       .  S
C359        C360   1.406   1_554  A
C359        C364   1.399       .  A
C360        C729   1.416       .  A
C361        C362   1.399       .  A
C361        C728   1.416       .  A
C361       Br368   1.923       .  S
C362        H367   1.082       .  S
C362        C731   1.406       .  A
C363        C364   1.417       .  A
C363        C730   1.406   1_554  A
C364       Br365   1.920       .  S
O369       Cu377   2.010   1_545  S
O369        C379   1.279       .  A
O370       Cu377   2.009       .  S
O371       Cu377   2.011   1_556  S
O371        C381   1.277   1_565  A
O372        C382   1.279       .  A
O373       Cu378   2.007       .  S
O373        C382   1.276       .  A
O374        C381   1.279   1_565  A
O375       Cu378   2.007       .  S
O375        C380   1.276       .  A
O376       Cu378   2.005   1_545  S
C380        C728   1.490       .  S
C381        C701   1.491       .  S
C382        C711   1.488       .  S
O383       Cu391   2.011   1_545  S
O383        C393   1.277       .  A
O384       Cu391   2.009       .  S
O384        C394   1.279       .  A
O385       Cu391   2.007       .  S
O385        C395   1.276   1_565  A
O386       Cu391   2.007       .  S
O386        C396   1.278       .  A
O387       Cu392   2.011   1_565  S
O387        C396   1.277       .  A
O388       Cu392   2.012       .  S
O388        C395   1.279       .  A
O389       Cu392   2.007   1_565  S
O389        C394   1.276       .  A
O390       Cu392   2.004       .  S
O390        C393   1.278       .  A
Cu391      Cu392   2.365   1_565  S
C393        C681   1.487       .  S
C394        C688   1.484       .  S
C395        C708   1.487       .  S
C396        C698   1.490       .  S
N397       Cu405   2.065       .  S
N398       Cu404   2.073   1_554  S
N398        C399   1.345   1_554  A
C399        H402   1.082       .  S
C401        H403   1.082       .  S
Cu405       N415   2.065       .  S
Cu406       N408   2.078       .  S
Cu406       N414   2.078       .  S
N407        N408   1.323       .  A
N408        C409   1.346       .  A
C409        H412   1.082       .  S
C409        C410   1.383       .  A
C411        H413   1.082       .  S
N414        N415   1.317       .  A
N414        C418   1.343       .  A
N415        C416   1.343       .  A
C416        H419   1.071       .  S
C416        C417   1.393       .  A
C417        C718   1.503       .  S
C417        C418   1.396       .  A
C418        H420   1.080       .  S
N421       Cu429   2.067       .  S
N421        N422   1.322       .  A
N421        C425   1.344       .  A
N422       Cu428   2.073       .  S
N422        C423   1.345       .  A
C423        H426   1.082       .  S
C423        C424   1.383       .  A
C424        C578   1.469       .  S
C424        C425   1.381       .  A
C425        H427   1.082       .  S
Cu428       N431   2.073       .  S
Cu429       N439   2.067       .  S
Cu430       N432   2.075       .  S
Cu430       N438   2.074       .  S
N431        N432   1.323       .  A
N431        C435   1.345       .  A
N432        C433   1.345       .  A
C433        H436   1.082       .  S
C433        C434   1.383       .  A
C434        C568   1.471       .  S
C434        C435   1.383       .  A
C435        H437   1.082       .  S
N438        N439   1.320       .  A
N438        C442   1.344       .  A
N439        C440   1.343       .  A
C440        H443   1.080       .  S
C440        C441   1.387       .  A
C441        C678   1.488       .  S
C441        C442   1.389       .  A
C442        H444   1.082       .  S
N445       Cu453   2.077       .  S
N445        N446   1.323       .  A
N445        C449   1.346       .  A
N446       Cu452   2.073       .  S
N446        C447   1.345       .  A
C447        H450   1.082       .  S
C447        C448   1.382       .  A
C448        C496   1.471       .  S
C448        C449   1.383       .  A
C449        H451   1.082       .  S
Cu452       N455   2.073       .  S
Cu453       N463   2.077       .  S
Cu454       N456   2.068       .  S
Cu454       N462   2.068       .  S
N455        N456   1.322       .  A
N455        C459   1.345       .  A
N456        C457   1.344       .  A
C457        H460   1.082       .  S
C457        C458   1.382       .  A
C458        C506   1.470       .  S
C458        C459   1.384       .  A
C459        H461   1.082       .  S
N462        N463   1.319       .  A
N462        C466   1.343       .  A
N463        C464   1.344       .  A
C464        H467   1.081       .  S
C464        C465   1.391       .  A
C465        C731   1.493       .  S
C465        C466   1.389       .  A
C466        H468   1.078       .  S
N469       Cu477   2.073       .  S
N469        N470   1.323       .  A
N469        C473   1.345       .  A
N470       Cu476   2.074       .  S
N470        C471   1.344       .  A
C471        H474   1.082       .  S
C471        C472   1.383       .  A
C472        C520   1.470       .  S
C472        C473   1.382       .  A
C473        H475   1.082       .  S
Cu476       N479   2.073       .  S
Cu477       N487   2.073       .  S
Cu478       N480   2.070       .  S
Cu478       N486   2.070       .  S
N479        N480   1.322       .  A
N479        C483   1.346       .  A
N480        C481   1.344       .  A
C481        H484   1.082       .  S
C481        C482   1.382       .  A
C482        C530   1.471       .  S
C482        C483   1.384       .  A
C483        H485   1.082       .  S
N486        N487   1.321       .  A
N486        C490   1.344       .  A
N487        C488   1.345       .  A
C488        H491   1.082       .  S
C488        C489   1.387       .  A
C489        C691   1.485       .  S
C489        C490   1.386       .  A
C490        H492   1.080       .  S
N493       Cu501   2.075       .  S
N493        N494   1.323       .  A
N493        C497   1.345       .  A
N494      Cu1236   2.074   1_455  S
N494        C495   1.345       .  A
C495        H498   1.082       .  S
C495        C496   1.383       .  A
C496        C497   1.383       .  A
C497        H499   1.082       .  S
Cu500      N1230   2.074       .  S
Cu500       N503   2.074       .  S
Cu501       N511   2.075       .  S
Cu502       N504   2.070       .  S
Cu502       N510   2.070       .  S
N503        N504   1.322       .  A
N503        C507   1.345       .  A
N504        C505   1.345       .  A
C505        H508   1.082       .  S
C505        C506   1.382       .  A
C506        C507   1.383       .  A
C507        H509   1.082       .  S
N510       N1247   1.322       .  A
N510        C514   1.344       .  A
N511       N1246   1.322   1_455  A
N511        C512   1.346       .  A
C512        H515   1.082       .  S
C512       C1249   1.384   1_455  A
C513        C668   1.477       .  S
C513       C1248   1.384       .  A
C513        C514   1.383       .  A
C514        H516   1.082       .  S
N517       Cu525   2.068       .  S
N517        N518   1.322       .  A
N517        C521   1.344       .  A
N518      Cu1260   2.073   1_455  S
N518        C519   1.345       .  A
C519        H522   1.082       .  S
C519        C520   1.384       .  A
C520        C521   1.382       .  A
C521        H523   1.082       .  S
Cu524      N1254   2.073       .  S
Cu524       N527   2.073       .  S
Cu525       N535   2.068       .  S
Cu526       N528   2.076       .  S
Cu526       N534   2.075       .  S
N527        N528   1.323       .  A
N527        C531   1.344       .  A
N528        C529   1.345       .  A
C529        H532   1.082       .  S
C529        C530   1.383       .  A
C530        C531   1.383       .  A
C531        H533   1.082       .  S
N534       N1271   1.320       .  A
N534        C538   1.344       .  A
N535       N1270   1.320   1_455  A
N535        C536   1.344       .  A
C536        H539   1.079       .  S
C536       C1273   1.387   1_455  A
C537        C658   1.489       .  S
C537       C1272   1.387       .  A
C537        C538   1.389       .  A
C538        H540   1.082       .  S
N541       Cu549   2.071       .  S
N541        N542   1.323       .  A
N541        C545   1.345       .  A
N542      Cu1284   2.073   1_554  S
N542        C543   1.344   1_554  A
C543        H546   1.082       .  S
C543        C544   1.383   1_556  A
C544        C545   1.382       .  A
C545        H547   1.082       .  S
Cu548      N1278   2.073   1_556  S
Cu548       N551   2.073   1_655  S
Cu549       N559   2.071       .  S
Cu550       N552   2.072       .  S
Cu550       N558   2.072       .  S
N551        N552   1.322       .  A
N551        C555   1.346   1_556  A
N552        C553   1.344       .  A
C553        H556   1.082       .  S
C553        C554   1.382       .  A
C554        C555   1.383   1_556  A
C555        H557   1.082       .  S
N558       N1295   1.320   1_456  A
N558        C562   1.344       .  A
N559       N1294   1.320   1_554  A
N559        C560   1.344       .  A
C560        H563   1.082       .  S
C560       C1297   1.387       .  A
C561        C648   1.486       .  S
C561       C1296   1.387   1_455  A
C561        C562   1.387   1_554  A
C562        H564   1.080       .  S
N565       Cu573   2.079       .  S
N565        N566   1.323       .  A
N565        C569   1.345       .  A
N566       Cu572   2.073       .  S
N566        C567   1.345       .  A
C567        H570   1.082       .  S
C567        C568   1.382       .  A
C568        C569   1.383       .  A
C569        H571   1.082       .  S
Cu572      N1311   2.073       .  S
Cu573       N583   2.078       .  S
Cu574       N576   2.065       .  S
Cu574       N582   2.065       .  S
N575      Cu1308   2.073   1_455  S
N575        N576   1.321       .  A
N575        C579   1.345       .  A
N576        C577   1.343       .  A
C577        H580   1.082       .  S
C577        C578   1.381       .  A
C578        C579   1.384       .  A
C579        H581   1.082       .  S
N582       N1319   1.318   1_455  A
N582        C586   1.342       .  A
N583       N1318   1.318       .  A
N583        C584   1.344       .  A
C584        H587   1.081       .  S
C584        C585   1.395       .  A
C585        C638   1.498       .  S
C585       C1322   1.390       .  A
C586        H588   1.076       .  S
C586       C1321   1.390   1_455  A
O589       Cu597   2.011   1_556  S
O589        C599   1.278   1_556  A
O590       Cu597   2.012       .  S
O590       C1336   1.278   1_554  A
O591       C1337   1.278       .  A
O592       Cu597   1.997   1_556  S
O592       C1338   1.274       .  A
O593       Cu598   2.018   1_556  S
O593        C602   1.280   1_455  A
O594        C601   1.277   1_455  A
O595       Cu598   2.005   1_556  S
O595        C600   1.278   1_455  A
O596       Cu598   2.006       .  S
O596       C1335   1.277   1_455  A
Cu597     Cu1334   2.366       .  S
Cu598     Cu1333   2.366   1_455  S
C599       O1332   1.277       .  A
C599        C671   1.473       .  S
C600       O1326   1.278   1_556  A
C600        C651   1.483       .  S
C601       O1327   1.278       .  A
C601       C1364   1.489       .  S
C602       O1328   1.274       .  A
C602       C1357   1.491       .  S
O603       Cu611   2.002       .  S
O603        C613   1.275       .  A
O604       Cu611   2.003       .  S
O604        C614   1.275       .  A
O605       Cu611   2.015       .  S
O605        C615   1.280       .  A
O606       Cu611   2.015       .  S
O606        C616   1.278       .  A
O607       Cu612   1.998       .  S
O607       C1352   1.277   1_455  A
O608       Cu612   1.999       .  S
O608       C1351   1.274   1_455  A
O609       Cu612   2.013       .  S
O609       C1350   1.280   1_455  A
O610       Cu612   2.014       .  S
O610       C1349   1.280   1_455  A
Cu611     Cu1348   2.362       .  S
Cu612     Cu1347   2.362   1_455  S
C613       O1346   1.280       .  A
C613        C661   1.487       .  S
C614       O1345   1.280       .  A
C614        C641   1.491       .  S
C615       O1344   1.274       .  A
C615        C618   1.491       .  S
C616       O1343   1.277       .  A
C616        C631   1.489       .  S
C617        H624   1.083       .  S
C617        C618   1.405       .  A
C617        C622   1.398       .  A
C618       C1355   1.418       .  A
C619       C1354   1.418   1_455  A
C619        C620   1.399       .  A
C619       Br626   1.924       .  S
C620        H625   1.083       .  S
C620       C1357   1.406   1_455  A
C621       C1338   1.491       .  S
C621       C1356   1.406       .  A
C621        C622   1.418       .  A
C622       Br623   1.924       .  S
C627        H634   1.083       .  S
C627        C628   1.407       .  A
C627        C632   1.399       .  A
C628       C1337   1.489       .  S
C628       C1365   1.415       .  A
C629       C1364   1.415   1_455  A
C629        C630   1.398       .  A
C629       Br636   1.923       .  S
C630        H635   1.083       .  S
C630       C1367   1.408   1_455  A
C631       C1366   1.408       .  A
C631        C632   1.414       .  A
C632       Br633   1.922       .  S
C637        H644   1.081       .  S
C637        C638   1.408       .  A
C637        C642   1.399       .  A
C638       C1375   1.420       .  A
C639       C1374   1.420   1_455  A
C639        C640   1.399       .  A
C639       Br646   1.920       .  S
C640        H645   1.083       .  S
C640       C1377   1.404   1_455  A
C641       C1376   1.404       .  A
C641        C642   1.416       .  A
C642       Br643   1.924       .  S
C647        H654   1.083       .  S
C647       C1384   1.406   1_556  A
C647        C652   1.399       .  A
C648       C1383   1.406   1_454  A
C649        C650   1.399       .  A
C649       Br656   1.920       .  S
C650        H655   1.083       .  S
C651       C1388   1.413       .  A
C652       C1387   1.413       .  A
C652       Br653   1.921       .  S
C657        H664   1.083       .  S
C657        C658   1.405       .  A
C657        C662   1.399       .  A
C658       C1395   1.415       .  A
C659       C1394   1.415   1_455  A
C659        C660   1.399       .  A
C659       Br666   1.920       .  S
C660        H665   1.083       .  S
C660       C1397   1.405   1_455  A
C661       C1396   1.405       .  A
C661        C662   1.415       .  A
C662       Br663   1.923       .  S
C667        H674   1.083       .  S
C667       C1404   1.404   1_455  A
C667        C672   1.399       .  A
C668       C1403   1.404       .  A
C669        C670   1.399       .  A
C669       Br676   1.920       .  S
C670        H675   1.084       .  S
C670        C671   1.402   1_556  A
C671       C1040   1.409       .  A
C672       C1039   1.409   1_455  A
C672       Br673   1.920       .  S
C677        H684   1.083       .  S
C677        C678   1.406       .  A
C677        C682   1.400       .  A
C678        C679   1.414       .  A
C679        C680   1.398       .  A
C679       Br686   1.921       .  S
C680        H685   1.083       .  S
C680        C681   1.406       .  A
C681        C682   1.414       .  A
C682       Br683   1.922       .  S
C687        H694   1.083       .  S
C687        C688   1.405       .  A
C687        C692   1.398       .  A
C688        C689   1.414       .  A
C689        C690   1.399       .  A
C689       Br696   1.922       .  S
C690        H695   1.083       .  S
C690        C691   1.405       .  A
C691        C692   1.413       .  A
C692       Br693   1.920       .  S
C697        H704   1.083       .  S
C697        C698   1.407   1_545  A
C697        C702   1.399       .  A
C698        C699   1.416       .  A
C699        C700   1.399       .  A
C699       Br706   1.922       .  S
C700        H705   1.083       .  S
C700        C701   1.407   1_565  A
C701        C702   1.416       .  A
C702       Br703   1.923       .  S
C707        H714   1.083       .  S
C707        C708   1.406   1_565  A
C707        C712   1.399       .  A
C708        C709   1.415       .  A
C709        C710   1.399       .  A
C709       Br716   1.922       .  S
C710        H715   1.083       .  S
C710        C711   1.406   1_545  A
C711        C712   1.415       .  A
C712       Br713   1.922       .  S
C717        H724   1.079       .  S
C717        C718   1.410       .  A
C717        C722   1.399       .  A
C719        C720   1.400       .  A
C719       Br726   1.919       .  S
C720        H725   1.083       .  S
C721        C722   1.414       .  A
C722       Br723   1.923       .  S
C727        H734   1.083       .  S
C727        C728   1.406       .  A
C727        C732   1.399       .  A
C729        C730   1.399       .  A
C729       Br736   1.923       .  S
C730        H735   1.082       .  S
C731        C732   1.417       .  A
C732       Br733   1.920       .  S
O737       Cu745   2.010   1_545  S
O737        C747   1.279       .  A
O738       Cu745   2.009       .  S
O738       C1116   1.279       .  A
O739       Cu745   2.011       .  S
O739        C749   1.277   1_565  A
O740      Cu1113   2.011       .  S
O740        C750   1.279       .  A
O741       Cu746   2.007   1_554  S
O741        C750   1.276       .  A
O742      Cu1114   2.008       .  S
O742        C749   1.279   1_565  A
O743       Cu746   2.007       .  S
O743        C748   1.276       .  A
O744       Cu746   2.005   1_545  S
O744       C1115   1.276   1_556  A
Cu745      O1108   2.011       .  S
Cu745     Cu1114   2.362       .  S
Cu746      O1110   2.008       .  S
Cu746     Cu1113   2.362   1_556  S
C747       O1112   1.276       .  A
C747       C1457   1.492       .  S
C748       O1106   1.279   1_556  A
C748       C1096   1.490       .  S
C749       C1069   1.491       .  S
C750       C1079   1.488       .  S
O751       Cu759   2.011   1_545  S
O751        C761   1.277       .  A
O752       Cu759   2.009       .  S
O752        C762   1.279       .  A
O753       Cu759   2.007       .  S
O753        C763   1.276   1_565  A
O754       Cu759   2.007       .  S
O754        C764   1.278       .  A
O755       Cu760   2.011   1_565  S
O755        C764   1.277       .  A
O756       Cu760   2.012       .  S
O756        C763   1.279       .  A
O757       Cu760   2.007   1_565  S
O757        C762   1.276       .  A
O758       Cu760   2.004       .  S
O758        C761   1.278       .  A
Cu759      Cu760   2.365   1_565  S
C761       C1049   1.487       .  S
C762       C1056   1.484       .  S
C763       C1076   1.487       .  S
C764       C1066   1.490       .  S
N765       Cu773   2.065       .  S
N765       N1134   1.322       .  A
N765       C1137   1.343       .  A
N766       Cu772   2.073       .  S
N766       N1133   1.322       .  A
N766        C767   1.345       .  A
C767        H770   1.082       .  S
C767       C1136   1.384       .  A
C768       C1280   1.469       .  S
C768       C1135   1.384   1_554  A
C768       C1137   1.381       .  A
C769       N1133   1.343       .  A
C769        H771   1.082       .  S
C769       C1136   1.381       .  A
Cu772      N1143   2.074       .  S
Cu773       N783   2.065       .  S
Cu774       N776   2.078       .  S
Cu774       N782   2.078       .  S
N775      Cu1140   2.074       .  S
N775        N776   1.323       .  A
N775       C1147   1.344   1_556  A
N776        C777   1.346       .  A
C777        H780   1.082       .  S
C777        C778   1.383       .  A
C778       C1290   1.471       .  S
C778       C1147   1.382   1_556  A
C779       N1143   1.344       .  A
C779        H781   1.082       .  S
C779       C1146   1.382       .  A
N782        N783   1.317   1_556  A
N782        C786   1.343       .  A
N783        C784   1.343       .  A
C784        H787   1.071       .  S
C784        C785   1.393       .  A
C785       C1086   1.503       .  S
C785        C786   1.396   1_554  A
C786        H788   1.080       .  S
N789       Cu797   2.067       .  S
N789        N790   1.322       .  A
N789        C793   1.344       .  A
N790       Cu796   2.073       .  S
N790        C791   1.345       .  A
C791        H794   1.082       .  S
C791        C792   1.383       .  A
C792        C946   1.469       .  S
C792        C793   1.381       .  A
C793        H795   1.082       .  S
Cu796       N799   2.073       .  S
Cu797       N807   2.067       .  S
Cu798       N800   2.075       .  S
Cu798       N806   2.074       .  S
N799        N800   1.323       .  A
N799        C803   1.345       .  A
N800        C801   1.345       .  A
C801        H804   1.082       .  S
C801        C802   1.383       .  A
C802        C936   1.471       .  S
C802        C803   1.383       .  A
C803        H805   1.082       .  S
N806        N807   1.320       .  A
N806        C810   1.344       .  A
N807        C808   1.343       .  A
C808        H811   1.080       .  S
C808        C809   1.387       .  A
C809       C1046   1.488       .  S
C809        C810   1.389       .  A
C810        H812   1.082       .  S
N813       Cu821   2.077       .  S
N813        N814   1.323       .  A
N813        C817   1.346       .  A
N814       Cu820   2.073       .  S
N814        C815   1.345   1_554  A
C815        H818   1.082       .  S
C815        C816   1.382   1_556  A
C816        C864   1.471       .  S
C816        C817   1.383       .  A
C817        H819   1.082       .  S
Cu820       N823   2.073   1_554  S
Cu821       N831   2.077       .  S
Cu822       N824   2.068       .  S
Cu822       N830   2.068       .  S
N823        N824   1.322       .  A
N823        C827   1.345   1_556  A
N824        C825   1.344       .  A
C825        H828   1.082       .  S
C825        C826   1.382       .  A
C826        C874   1.470       .  S
C826        C827   1.384   1_556  A
C827        H829   1.082       .  S
N830        N831   1.319   1_556  A
N830        C834   1.343       .  A
N831        C832   1.344       .  A
C832        H835   1.081       .  S
C832        C833   1.391       .  A
C833       C1099   1.493       .  S
C833        C834   1.389   1_554  A
C834        H836   1.078       .  S
N837       Cu845   2.073       .  S
N837        N838   1.323       .  A
N837        C841   1.345       .  A
N838       Cu844   2.074       .  S
N838        C839   1.344       .  A
C839        H842   1.082       .  S
C839        C840   1.383       .  A
C840        C888   1.470       .  S
C840        C841   1.382       .  A
C841        H843   1.082       .  S
Cu844       N847   2.073       .  S
Cu845       N855   2.073       .  S
Cu846       N848   2.070       .  S
Cu846       N854   2.070       .  S
N847        N848   1.322       .  A
N847        C851   1.346       .  A
N848        C849   1.344       .  A
C849        H852   1.082       .  S
C849        C850   1.382       .  A
C850        C898   1.471       .  S
C850        C851   1.384       .  A
C851        H853   1.082       .  S
N854        N855   1.321       .  A
N854        C858   1.344       .  A
N855        C856   1.345       .  A
C856        H859   1.082       .  S
C856        C857   1.387       .  A
C857       C1059   1.485       .  S
C857        C858   1.386       .  A
C858        H860   1.080       .  S
N861       Cu869   2.075       .  S
N861        N862   1.323       .  A
N861        C865   1.345       .  A
N862        C863   1.345       .  A
C863        H866   1.082       .  S
C863        C864   1.383       .  A
C864        C865   1.383       .  A
C865        H867   1.082       .  S
Cu868       N871   2.074       .  S
Cu869       N879   2.075       .  S
Cu870       N872   2.070   1_556  S
Cu870       N878   2.070       .  S
N871        N872   1.322       .  A
N871        C875   1.345   1_554  A
N872        C873   1.345       .  A
C873        H876   1.082   1_554  S
C873        C874   1.382   1_554  A
C874        C875   1.383       .  A
C875        H877   1.082       .  S
N878        C882   1.344       .  A
N879        C880   1.346       .  A
C880        H883   1.082       .  S
C881       C1036   1.477       .  S
C881        C882   1.383       .  A
C882        H884   1.082       .  S
N885       Cu893   2.068       .  S
N885        N886   1.322       .  A
N885        C889   1.344       .  A
N886        C887   1.345       .  A
C887        H890   1.082       .  S
C887        C888   1.384       .  A
C888        C889   1.382       .  A
C889        H891   1.082       .  S
Cu892       N895   2.073       .  S
Cu893       N903   2.068       .  S
Cu894       N896   2.076       .  S
Cu894       N902   2.075       .  S
N895        N896   1.323       .  A
N895        C899   1.344       .  A
N896        C897   1.345       .  A
C897        H900   1.082       .  S
C897        C898   1.383       .  A
C898        C899   1.383       .  A
C899        H901   1.082       .  S
N902        C906   1.344       .  A
N903        C904   1.344       .  A
C904        H907   1.079       .  S
C905       C1026   1.489       .  S
C905        C906   1.389       .  A
C906        H908   1.082       .  S
N909       Cu917   2.071       .  S
N909        N910   1.323       .  A
N909        C913   1.345       .  A
N910        C911   1.344       .  A
C911        H914   1.082       .  S
C911        C912   1.383       .  A
C912       C1136   1.469       .  S
C912        C913   1.382       .  A
C913        H915   1.082       .  S
Cu916       N919   2.073       .  S
Cu917       N927   2.071       .  S
Cu918       N920   2.072       .  S
Cu918       N926   2.072       .  S
N919        N920   1.322       .  A
N919        C923   1.346       .  A
N920        C921   1.344       .  A
C921        H924   1.082       .  S
C921        C922   1.382       .  A
C922       C1146   1.471       .  S
C922        C923   1.383       .  A
C923        H925   1.082       .  S
N926        C930   1.344       .  A
N927        C928   1.344       .  A
C928        H931   1.082       .  S
C929       C1016   1.486       .  S
C929        C930   1.387       .  A
C930        H932   1.080       .  S
N933       Cu941   2.079       .  S
N933        N934   1.323       .  A
N933        C937   1.345       .  A
N934       Cu940   2.073       .  S
N934        C935   1.345       .  A
C935        H938   1.082       .  S
C935        C936   1.382       .  A
C936        C937   1.383       .  A
C937        H939   1.082       .  S
Cu941       N951   2.078       .  S
Cu942       N944   2.065       .  S
Cu942       N950   2.065       .  S
N943        N944   1.321       .  A
N943        C947   1.345       .  A
N944        C945   1.343       .  A
C945        H948   1.082       .  S
C945        C946   1.381       .  A
C946        C947   1.384       .  A
C947        H949   1.082       .  S
N950        C954   1.342       .  A
N951        C952   1.344       .  A
C952        H955   1.081       .  S
C952        C953   1.395       .  A
C953       C1006   1.498       .  S
C954        H956   1.076       .  S
O957       Cu965   2.011       .  S
O957        C967   1.278       .  A
O958       Cu965   2.012       .  S
O959      Cu1333   2.002       .  S
O960       Cu965   1.997       .  S
O961       Cu966   2.018       .  S
O961        C970   1.280       .  A
O962      Cu1334   2.012       .  S
O962        C969   1.277       .  A
O963       Cu966   2.005       .  S
O963        C968   1.278       .  A
O964       Cu966   2.006       .  S
Cu965      O1327   2.002       .  S
Cu966      O1330   2.012       .  S
C967       C1039   1.473       .  S
C968       C1019   1.483       .  S
O971       Cu979   2.002       .  S
O971        C981   1.275       .  A
O972       Cu979   2.003       .  S
O972        C982   1.275       .  A
O973       Cu979   2.015       .  S
O973        C983   1.280       .  A
O974       Cu979   2.015       .  S
O974        C984   1.278       .  A
O975       Cu980   1.998       .  S
O976       Cu980   1.999       .  S
O977       Cu980   2.013       .  S
O978       Cu980   2.014       .  S
C981       C1029   1.487       .  S
C982       C1009   1.491       .  S
C983        C986   1.491       .  S
C984        C999   1.489       .  S
C985        H992   1.083       .  S
C985        C986   1.405       .  A
C985        C990   1.398       .  A
C987        C988   1.399       .  A
C987       Br994   1.924       .  S
C988        H993   1.083       .  S
C989        C990   1.418       .  A
C990       Br991   1.924       .  S
C995       H1002   1.083       .  S
C995        C996   1.407       .  A
C995       C1000   1.399       .  A
C997        C998   1.398       .  A
C997      Br1004   1.923       .  S
C998       H1003   1.083       .  S
C999       C1000   1.414       .  A
C1000     Br1001   1.922       .  S
C1005      H1012   1.081       .  S
C1005      C1006   1.408       .  A
C1005      C1010   1.399       .  A
C1007      C1008   1.399       .  A
C1007     Br1014   1.920       .  S
C1008      H1013   1.083       .  S
C1009      C1010   1.416       .  A
C1010     Br1011   1.924       .  S
C1015      H1022   1.083       .  S
C1015      C1020   1.399       .  A
C1016      C1385   1.414       .  A
C1017      C1384   1.414       .  A
C1017      C1018   1.399       .  A
C1017     Br1024   1.920       .  S
C1018      H1023   1.083       .  S
C1018      C1387   1.405   1_554  A
C1019      C1386   1.405       .  A
C1020     Br1021   1.921       .  S
C1025      H1032   1.083       .  S
C1025      C1026   1.405       .  A
C1025      C1030   1.399       .  A
C1027      C1028   1.399       .  A
C1027     Br1034   1.920       .  S
C1028      H1033   1.083       .  S
C1029      C1030   1.415       .  A
C1030     Br1031   1.923       .  S
C1035      H1042   1.083       .  S
C1035      C1040   1.399       .  A
C1036      C1405   1.411       .  A
C1037      C1404   1.411       .  A
C1037      C1038   1.399       .  A
C1037     Br1044   1.920       .  S
C1038      H1043   1.084       .  S
C1038      C1039   1.402       .  A
C1040     Br1041   1.920       .  S
C1045      H1052   1.083       .  S
C1045      C1046   1.406       .  A
C1045      C1050   1.400       .  A
C1046      C1047   1.414       .  A
C1047      C1048   1.398       .  A
C1047     Br1054   1.921       .  S
C1048      H1053   1.083       .  S
C1048      C1049   1.406       .  A
C1049      C1050   1.414       .  A
C1050     Br1051   1.922       .  S
C1055      H1062   1.083       .  S
C1055      C1056   1.405       .  A
C1055      C1060   1.398       .  A
C1056      C1057   1.414       .  A
C1057      C1058   1.399       .  A
C1057     Br1064   1.922       .  S
C1058      H1063   1.083       .  S
C1058      C1059   1.405       .  A
C1059      C1060   1.413       .  A
C1060     Br1061   1.920       .  S
C1065      H1072   1.083       .  S
C1065      C1066   1.407   1_545  A
C1065      C1070   1.399       .  A
C1066      C1067   1.416       .  A
C1067      C1068   1.399       .  A
C1067     Br1074   1.922       .  S
C1068      H1073   1.083       .  S
C1068      C1069   1.407   1_565  A
C1069      C1070   1.416       .  A
C1070     Br1071   1.923       .  S
C1075      H1082   1.083       .  S
C1075      C1076   1.406   1_565  A
C1075      C1080   1.399       .  A
C1076      C1077   1.415       .  A
C1077      C1078   1.399       .  A
C1077     Br1084   1.922       .  S
C1078      H1083   1.083       .  S
C1078      C1079   1.406   1_545  A
C1079      C1080   1.415       .  A
C1080     Br1081   1.922       .  S
C1085      H1092   1.079       .  S
C1085      C1086   1.410       .  A
C1085      C1090   1.399       .  A
C1086      C1455   1.422   1_554  A
C1087      C1454   1.422       .  A
C1087      C1088   1.400       .  A
C1087     Br1094   1.919       .  S
C1088      H1093   1.083       .  S
C1088      C1457   1.404       .  A
C1089      C1115   1.492       .  S
C1089      C1456   1.404   1_554  A
C1089      C1090   1.414       .  A
C1090     Br1091   1.923       .  S
C1095      H1102   1.083       .  S
C1095      C1096   1.406   1_554  A
C1095      C1100   1.399       .  A
C1096      C1465   1.416       .  A
C1097      C1464   1.416       .  A
C1097      C1098   1.399       .  A
C1097     Br1104   1.923       .  S
C1098      H1103   1.082       .  S
C1098      C1467   1.406       .  A
C1099      C1466   1.406   1_554  A
C1099      C1100   1.417       .  A
C1100     Br1101   1.920       .  S
O1105     Cu1113   2.010   1_545  S
O1105      C1115   1.279       .  A
O1106     Cu1113   2.009       .  S
O1107     Cu1113   2.011   1_556  S
O1107      C1117   1.277   1_565  A
O1108      C1118   1.279       .  A
O1109     Cu1114   2.007       .  S
O1109      C1118   1.276       .  A
O1110      C1117   1.279   1_565  A
O1111     Cu1114   2.007       .  S
O1111      C1116   1.276       .  A
O1112     Cu1114   2.005   1_545  S
C1116      C1464   1.490       .  S
C1117      C1437   1.491       .  S
C1118      C1447   1.488       .  S
O1119     Cu1127   2.011   1_545  S
O1119      C1129   1.277       .  A
O1120     Cu1127   2.009       .  S
O1120      C1130   1.279       .  A
O1121     Cu1127   2.007       .  S
O1121      C1131   1.276   1_565  A
O1122     Cu1127   2.007       .  S
O1122      C1132   1.278       .  A
O1123     Cu1128   2.011   1_565  S
O1123      C1132   1.277       .  A
O1124     Cu1128   2.012       .  S
O1124      C1131   1.279       .  A
O1125     Cu1128   2.007   1_565  S
O1125      C1130   1.276       .  A
O1126     Cu1128   2.004       .  S
O1126      C1129   1.278       .  A
Cu1127    Cu1128   2.365   1_565  S
C1129      C1417   1.487       .  S
C1130      C1424   1.484       .  S
C1131      C1444   1.487       .  S
C1132      C1434   1.490       .  S
N1133     Cu1141   2.065       .  S
N1134     Cu1140   2.073   1_554  S
N1134      C1135   1.345   1_554  A
C1135      H1138   1.082       .  S
C1137      H1139   1.082       .  S
Cu1141     N1151   2.065       .  S
Cu1142     N1144   2.078       .  S
Cu1142     N1150   2.078       .  S
N1143      N1144   1.323       .  A
N1144      C1145   1.346       .  A
C1145      H1148   1.082       .  S
C1145      C1146   1.383       .  A
C1147      H1149   1.082       .  S
N1150      N1151   1.317       .  A
N1150      C1154   1.343       .  A
N1151      C1152   1.343       .  A
C1152      H1155   1.071       .  S
C1152      C1153   1.393       .  A
C1153      C1454   1.503       .  S
C1153      C1154   1.396       .  A
C1154      H1156   1.080       .  S
N1157     Cu1165   2.067       .  S
N1157      N1158   1.322       .  A
N1157      C1161   1.344       .  A
N1158     Cu1164   2.073       .  S
N1158      C1159   1.345       .  A
C1159      H1162   1.082       .  S
C1159      C1160   1.383       .  A
C1160      C1314   1.469       .  S
C1160      C1161   1.381       .  A
C1161      H1163   1.082       .  S
Cu1164     N1167   2.073       .  S
Cu1165     N1175   2.067       .  S
Cu1166     N1168   2.075       .  S
Cu1166     N1174   2.074       .  S
N1167      N1168   1.323       .  A
N1167      C1171   1.345       .  A
N1168      C1169   1.345       .  A
C1169      H1172   1.082       .  S
C1169      C1170   1.383       .  A
C1170      C1304   1.471       .  S
C1170      C1171   1.383       .  A
C1171      H1173   1.082       .  S
N1174      N1175   1.320       .  A
N1174      C1178   1.344       .  A
N1175      C1176   1.343       .  A
C1176      H1179   1.080       .  S
C1176      C1177   1.387       .  A
C1177      C1414   1.488       .  S
C1177      C1178   1.389       .  A
C1178      H1180   1.082       .  S
N1181     Cu1189   2.077       .  S
N1181      N1182   1.323       .  A
N1181      C1185   1.346       .  A
N1182     Cu1188   2.073       .  S
N1182      C1183   1.345       .  A
C1183      H1186   1.082       .  S
C1183      C1184   1.382       .  A
C1184      C1232   1.471       .  S
C1184      C1185   1.383       .  A
C1185      H1187   1.082       .  S
Cu1188     N1191   2.073       .  S
Cu1189     N1199   2.077       .  S
Cu1190     N1192   2.068       .  S
Cu1190     N1198   2.068       .  S
N1191      N1192   1.322       .  A
N1191      C1195   1.345       .  A
N1192      C1193   1.344       .  A
C1193      H1196   1.082       .  S
C1193      C1194   1.382       .  A
C1194      C1242   1.470       .  S
C1194      C1195   1.384       .  A
C1195      H1197   1.082       .  S
N1198      N1199   1.319       .  A
N1198      C1202   1.343       .  A
N1199      C1200   1.344       .  A
C1200      H1203   1.081       .  S
C1200      C1201   1.391       .  A
C1201      C1467   1.493       .  S
C1201      C1202   1.389       .  A
C1202      H1204   1.078       .  S
N1205     Cu1213   2.073       .  S
N1205      N1206   1.323       .  A
N1205      C1209   1.345       .  A
N1206     Cu1212   2.074       .  S
N1206      C1207   1.344       .  A
C1207      H1210   1.082       .  S
C1207      C1208   1.383       .  A
C1208      C1256   1.470       .  S
C1208      C1209   1.382       .  A
C1209      H1211   1.082       .  S
Cu1212     N1215   2.073       .  S
Cu1213     N1223   2.073       .  S
Cu1214     N1216   2.070       .  S
Cu1214     N1222   2.070       .  S
N1215      N1216   1.322       .  A
N1215      C1219   1.346       .  A
N1216      C1217   1.344       .  A
C1217      H1220   1.082       .  S
C1217      C1218   1.382       .  A
C1218      C1266   1.471       .  S
C1218      C1219   1.384       .  A
C1219      H1221   1.082       .  S
N1222      N1223   1.321       .  A
N1222      C1226   1.344       .  A
N1223      C1224   1.345       .  A
C1224      H1227   1.082       .  S
C1224      C1225   1.387       .  A
C1225      C1427   1.485       .  S
C1225      C1226   1.386       .  A
C1226      H1228   1.080       .  S
N1229     Cu1237   2.075       .  S
N1229      N1230   1.323       .  A
N1229      C1233   1.345       .  A
N1230      C1231   1.345       .  A
C1231      H1234   1.082       .  S
C1231      C1232   1.383       .  A
C1232      C1233   1.383       .  A
C1233      H1235   1.082       .  S
Cu1236     N1239   2.074       .  S
Cu1237     N1247   2.075       .  S
Cu1238     N1240   2.070       .  S
Cu1238     N1246   2.070       .  S
N1239      N1240   1.322       .  A
N1239      C1243   1.345       .  A
N1240      C1241   1.345       .  A
C1241      H1244   1.082       .  S
C1241      C1242   1.382       .  A
C1242      C1243   1.383       .  A
C1243      H1245   1.082       .  S
N1246      C1250   1.344       .  A
N1247      C1248   1.346       .  A
C1248      H1251   1.082       .  S
C1249      C1404   1.477       .  S
C1249      C1250   1.383       .  A
C1250      H1252   1.082       .  S
N1253     Cu1261   2.068       .  S
N1253      N1254   1.322       .  A
N1253      C1257   1.344       .  A
N1254      C1255   1.345       .  A
C1255      H1258   1.082       .  S
C1255      C1256   1.384       .  A
C1256      C1257   1.382       .  A
C1257      H1259   1.082       .  S
Cu1260     N1263   2.073       .  S
Cu1261     N1271   2.068       .  S
Cu1262     N1264   2.076       .  S
Cu1262     N1270   2.075       .  S
N1263      N1264   1.323       .  A
N1263      C1267   1.344       .  A
N1264      C1265   1.345       .  A
C1265      H1268   1.082       .  S
C1265      C1266   1.383       .  A
C1266      C1267   1.383       .  A
C1267      H1269   1.082       .  S
N1270      C1274   1.344       .  A
N1271      C1272   1.344       .  A
C1272      H1275   1.079       .  S
C1273      C1394   1.489       .  S
C1273      C1274   1.389       .  A
C1274      H1276   1.082       .  S
N1277     Cu1285   2.071       .  S
N1277      N1278   1.323       .  A
N1277      C1281   1.345       .  A
N1278      C1279   1.344   1_554  A
C1279      H1282   1.082       .  S
C1279      C1280   1.383   1_556  A
C1280      C1281   1.382       .  A
C1281      H1283   1.082       .  S
Cu1284     N1287   2.073       .  S
Cu1285     N1295   2.071       .  S
Cu1286     N1288   2.072       .  S
Cu1286     N1294   2.072       .  S
N1287      N1288   1.322       .  A
N1287      C1291   1.346   1_556  A
N1288      C1289   1.344       .  A
C1289      H1292   1.082       .  S
C1289      C1290   1.382       .  A
C1290      C1291   1.383   1_556  A
C1291      H1293   1.082       .  S
N1294      C1298   1.344       .  A
N1295      C1296   1.344       .  A
C1296      H1299   1.082       .  S
C1297      C1384   1.486       .  S
C1297      C1298   1.387   1_554  A
C1298      H1300   1.080       .  S
N1301     Cu1309   2.079       .  S
N1301      N1302   1.323       .  A
N1301      C1305   1.345       .  A
N1302     Cu1308   2.073       .  S
N1302      C1303   1.345       .  A
C1303      H1306   1.082       .  S
C1303      C1304   1.382       .  A
C1304      C1305   1.383       .  A
C1305      H1307   1.082       .  S
Cu1309     N1319   2.078       .  S
Cu1310     N1312   2.065       .  S
Cu1310     N1318   2.065       .  S
N1311      N1312   1.321       .  A
N1311      C1315   1.345       .  A
N1312      C1313   1.343       .  A
C1313      H1316   1.082       .  S
C1313      C1314   1.381       .  A
C1314      C1315   1.384       .  A
C1315      H1317   1.082       .  S
N1318      C1322   1.342       .  A
N1319      C1320   1.344       .  A
C1320      H1323   1.081       .  S
C1320      C1321   1.395       .  A
C1321      C1374   1.498       .  S
C1322      H1324   1.076       .  S
O1325     Cu1333   2.011   1_556  S
O1325      C1335   1.278   1_556  A
O1326     Cu1333   2.012       .  S
O1328     Cu1333   1.997   1_556  S
O1329     Cu1334   2.018   1_556  S
O1329      C1338   1.280       .  A
O1330      C1337   1.277       .  A
O1331     Cu1334   2.005   1_556  S
O1331      C1336   1.278       .  A
O1332     Cu1334   2.006       .  S
C1335      C1407   1.473       .  S
C1336      C1387   1.483       .  S
O1339     Cu1347   2.002       .  S
O1339      C1349   1.275       .  A
O1340     Cu1347   2.003       .  S
O1340      C1350   1.275       .  A
O1341     Cu1347   2.015       .  S
O1341      C1351   1.280       .  A
O1342     Cu1347   2.015       .  S
O1342      C1352   1.278       .  A
O1343     Cu1348   1.998       .  S
O1344     Cu1348   1.999       .  S
O1345     Cu1348   2.013       .  S
O1346     Cu1348   2.014       .  S
C1349      C1397   1.487       .  S
C1350      C1377   1.491       .  S
C1351      C1354   1.491       .  S
C1352      C1367   1.489       .  S
C1353      H1360   1.083       .  S
C1353      C1354   1.405       .  A
C1353      C1358   1.398       .  A
C1355      C1356   1.399       .  A
C1355     Br1362   1.924       .  S
C1356      H1361   1.083       .  S
C1357      C1358   1.418       .  A
C1358     Br1359   1.924       .  S
C1363      H1370   1.083       .  S
C1363      C1364   1.407       .  A
C1363      C1368   1.399       .  A
C1365      C1366   1.398       .  A
C1365     Br1372   1.923       .  S
C1366      H1371   1.083       .  S
C1367      C1368   1.414       .  A
C1368     Br1369   1.922       .  S
C1373      H1380   1.081       .  S
C1373      C1374   1.408       .  A
C1373      C1378   1.399       .  A
C1375      C1376   1.399       .  A
C1375     Br1382   1.920       .  S
C1376      H1381   1.083       .  S
C1377      C1378   1.416       .  A
C1378     Br1379   1.924       .  S
C1383      H1390   1.083       .  S
C1383      C1388   1.399       .  A
C1385      C1386   1.399       .  A
C1385     Br1392   1.920       .  S
C1386      H1391   1.083       .  S
C1388     Br1389   1.921       .  S
C1393      H1400   1.083       .  S
C1393      C1394   1.405       .  A
C1393      C1398   1.399       .  A
C1395      C1396   1.399       .  A
C1395     Br1402   1.920       .  S
C1396      H1401   1.083       .  S
C1397      C1398   1.415       .  A
C1398     Br1399   1.923       .  S
C1403      H1410   1.083       .  S
C1403      C1408   1.399       .  A
C1405      C1406   1.399       .  A
C1405     Br1412   1.920       .  S
C1406      H1411   1.084       .  S
C1406      C1407   1.402   1_556  A
C1408     Br1409   1.920       .  S
C1413      H1420   1.083       .  S
C1413      C1414   1.406       .  A
C1413      C1418   1.400       .  A
C1414      C1415   1.414       .  A
C1415      C1416   1.398       .  A
C1415     Br1422   1.921       .  S
C1416      H1421   1.083       .  S
C1416      C1417   1.406       .  A
C1417      C1418   1.414       .  A
C1418     Br1419   1.922       .  S
C1423      H1430   1.083       .  S
C1423      C1424   1.405       .  A
C1423      C1428   1.398       .  A
C1424      C1425   1.414       .  A
C1425      C1426   1.399       .  A
C1425     Br1432   1.922       .  S
C1426      H1431   1.083       .  S
C1426      C1427   1.405       .  A
C1427      C1428   1.413       .  A
C1428     Br1429   1.920       .  S
C1433      H1440   1.083       .  S
C1433      C1434   1.407   1_545  A
C1433      C1438   1.399       .  A
C1434      C1435   1.416       .  A
C1435      C1436   1.399       .  A
C1435     Br1442   1.922       .  S
C1436      H1441   1.083       .  S
C1436      C1437   1.407   1_565  A
C1437      C1438   1.416       .  A
C1438     Br1439   1.923       .  S
C1443      H1450   1.083       .  S
C1443      C1444   1.406   1_565  A
C1443      C1448   1.399       .  A
C1444      C1445   1.415       .  A
C1445      C1446   1.399       .  A
C1445     Br1452   1.922       .  S
C1446      H1451   1.083       .  S
C1446      C1447   1.406   1_545  A
C1447      C1448   1.415       .  A
C1448     Br1449   1.922       .  S
C1453      H1460   1.079       .  S
C1453      C1454   1.410       .  A
C1453      C1458   1.399       .  A
C1455      C1456   1.400       .  A
C1455     Br1462   1.919       .  S
C1456      H1461   1.083       .  S
C1457      C1458   1.414       .  A
C1458     Br1459   1.923       .  S
C1463      H1470   1.083       .  S
C1463      C1464   1.406       .  A
C1463      C1468   1.399       .  A
C1465      C1466   1.399       .  A
C1465     Br1472   1.923       .  S
C1466      H1471   1.082       .  S
C1467      C1468   1.417       .  A
C1468     Br1469   1.920       .  S
