geometry optimzed in LAMMPS
_audit_creation_date              2020-11-30 
_audit_creation_method            'lammps2cif' 
_symmetry_space_group_name_H-M    'P1' 
_symmetry_Int_Tables_number       1 
_symmetry_cell_setting            triclinic 
loop_ 
_symmetry_equiv_pos_as_xyz 
  x,y,z 
_cell_length_a                    51.17507319405861 
_cell_length_b                    50.973110394305984 
_cell_length_c                    50.897994138500046 
_cell_angle_alpha                 89.89837760831725 
_cell_angle_beta                  90.06902584729015 
_cell_angle_gamma                 90.1669840826354 
loop_ 
_atom_site_label 
_atom_site_type_symbol 
_atom_site_fract_x 
_atom_site_fract_y 
_atom_site_fract_z 
_atom_site_charge 
C1          C  0.50394740  0.80013809  0.69900956     0.03660
C2          C  0.50346999  0.82681870  0.70580646    -0.12490
C3          C  0.50207443  0.84606590  0.68613484     0.01160
C4          C  0.50039652  0.83845706  0.65973112    -0.11020
C5          C  0.50076196  0.81187061  0.65280384     0.03650
C6          C  0.50306586  0.79272783  0.67247806    -0.10440
H7          H  0.50406815  0.83255468  0.72629344     0.09250
H8          H  0.49907546  0.85328921  0.64449493     0.06780
H9          H  0.50357328  0.77214633  0.66720204     0.06620
C10         C  0.50027918  0.71984128  0.77864133     0.03660
C11         C  0.50127738  0.69300374  0.77258730    -0.12490
C12         C  0.49952020  0.67421804  0.79269912     0.01160
C13         C  0.49691804  0.68246790  0.81882832    -0.11020
C14         C  0.49643544  0.70922527  0.82502990     0.03650
C15         C  0.49819161  0.72790223  0.80489387    -0.10440
H16         H  0.50275898  0.68677949  0.75229540     0.09250
H17         H  0.49557015  0.66801443  0.83442726     0.06780
H18         H  0.49763199  0.74862281  0.80959361     0.06620
C19         C  0.78832938  0.71966256  0.48211035     0.03660
C20         C  0.81469730  0.72758207  0.48364362    -0.12490
C21         C  0.83442316  0.70884462  0.48721587     0.01160
C22         C  0.82731660  0.68262142  0.49156170    -0.11020
C23         C  0.80147783  0.67405312  0.48822657     0.03650
C24         C  0.78204672  0.69277035  0.48326700    -0.10440
H25         H  0.81981536  0.74813212  0.48183020     0.09250
H26         H  0.84241155  0.66842068  0.49603897     0.06780
H27         H  0.76200769  0.68654808  0.48032896     0.06620
C28         C  0.70782924  0.79902444  0.48771835     0.03660
C29         C  0.68105511  0.79237118  0.48851814    -0.12490
C30         C  0.66221161  0.81166379  0.49372062     0.01160
C31         C  0.67065293  0.83737154  0.49851976    -0.11020
C32         C  0.69663152  0.84499457  0.49430880     0.03650
C33         C  0.71533299  0.82558840  0.48917798    -0.10440
H34         H  0.67505755  0.77232095  0.48485878     0.09250
H35         H  0.65638606  0.85218458  0.50363800     0.06780
H36         H  0.73559067  0.83106115  0.48633417     0.06620
C37         C  0.78925616  0.51150232  0.69946215     0.03660
C38         C  0.81590802  0.50942527  0.70627909    -0.12490
C39         C  0.83508050  0.50700256  0.68669065     0.01160
C40         C  0.82714872  0.50620470  0.66031747    -0.11020
C41         C  0.80124400  0.51117054  0.65306029     0.03650
C42         C  0.78225771  0.51352412  0.67273462    -0.10440
H43         H  0.82168792  0.50985399  0.72674027     0.09250
H44         H  0.84162727  0.50322659  0.64509265     0.06780
H45         H  0.76212679  0.51717693  0.66728501     0.06620
C46         C  0.70977012  0.51672949  0.78074415     0.03660
C47         C  0.68319158  0.51869329  0.77380994    -0.12490
C48         C  0.66361978  0.51645413  0.79295408     0.01160
C49         C  0.67086978  0.51338775  0.81934247    -0.11020
C50         C  0.69718795  0.51194542  0.82684500     0.03650
C51         C  0.71661281  0.51316826  0.80736597    -0.10440
H52         H  0.67772571  0.52170530  0.75345629     0.09250
H53         H  0.65581174  0.51199277  0.83424253     0.06780
H54         H  0.73692731  0.51086278  0.81286666     0.06620
C55         C  0.78969126  0.79721511  0.99394959     0.03660
C56         C  0.78163923  0.82357087  0.99487191    -0.12490
C57         C  0.80009320  0.84361813  0.99828506     0.01160
C58         C  0.82640015  0.83700645  0.00158118    -0.11020
C59         C  0.83531758  0.81126709  0.99773115     0.03650
C60         C  0.81661390  0.79129033  0.99396513    -0.10440
H61         H  0.76114590  0.82843693  0.99280909     0.09250
H62         H  0.84026682  0.85261315  0.00553043     0.06780
H63         H  0.82275075  0.77126499  0.99068462     0.06620
C64         C  0.70977519  0.71650334  0.98943318     0.03660
C65         C  0.68343993  0.72429247  0.98779296    -0.12490
C66         C  0.66338319  0.70550379  0.98752945     0.01160
C67         C  0.66991965  0.67884042  0.98843490    -0.11020
C68         C  0.69595385  0.67051164  0.99074310     0.03650
C69         C  0.71579739  0.68963437  0.99183477    -0.10440
H70         H  0.67857372  0.74493040  0.98659748     0.09250
H71         H  0.65439633  0.66439537  0.98738906     0.06780
H72         H  0.73595505  0.68368559  0.99415857     0.06620
C73         C  0.78987165  0.01159968  0.78017242     0.03660
C74         C  0.78231625  0.01150316  0.80671205    -0.12490
C75         C  0.80117402  0.01359803  0.82652458     0.01160
C76         C  0.82736692  0.01752010  0.81948436    -0.11020
C77         C  0.83570263  0.01504645  0.79329119     0.03650
C78         C  0.81660194  0.01206029  0.77360834    -0.10440
H79         H  0.76188992  0.00935705  0.81188177     0.09250
H80         H  0.84160929  0.02076447  0.83491348     0.06780
H81         H  0.82231218  0.00962036  0.75328989     0.06620
C82         C  0.70974739  0.00500994  0.70045019     0.03660
C83         C  0.71578228  0.00484188  0.67348437    -0.12490
C84         C  0.69579817  0.00246754  0.65464710     0.01160
C85         C  0.66977057  0.00082045  0.66337345    -0.11020
C86         C  0.66339371  0.00413457  0.68988171     0.03650
C87         C  0.68348091  0.00535522  0.70851053    -0.10440
H88         H  0.73594320  0.00669724  0.66732501     0.09250
H89         H  0.65404957  0.99851228  0.64927693     0.06780
H90         H  0.67873118  0.00757467  0.72912569     0.06620
C91         C  0.00281252  0.79948682  0.78093718     0.03660
C92         C  0.00444345  0.82588013  0.77314032    -0.12490
C93         C  0.00604249  0.84571692  0.79209374     0.01160
C94         C  0.00611571  0.83907095  0.81878480    -0.11020
C95         C  0.00400806  0.81277894  0.82685410     0.03650
C96         C  0.00205922  0.79303869  0.80774872    -0.10440
H97         H  0.00433479  0.83094622  0.75245107     0.09250
H98         H  0.00723291  0.85453626  0.83334370     0.06780
H99         H  0.00003033  0.77270818  0.81367581     0.06620
C100        C  0.99804856  0.71924360  0.70146998     0.03660
C101        C  0.99981035  0.69256602  0.70817547    -0.12490
C102        C  0.00159593  0.67347905  0.68843911     0.01160
C103        C  0.00164453  0.68128356  0.66197961    -0.11020
C104        C  0.00001760  0.70786194  0.65521119     0.03650
C105        C  0.99809636  0.72682023  0.67496644    -0.10440
H106        H  0.00011185  0.68674694  0.72866477     0.09250
H107        H  0.00285425  0.66664090  0.64660671     0.06780
H108        H  0.99704099  0.74741547  0.66975624     0.06620
C109        C  0.49860650  0.21947599  0.70112745     0.03660
C110        C  0.49707260  0.22618450  0.67432467    -0.12490
C111        C  0.49521094  0.20656177  0.65507649     0.01160
C112        C  0.49543194  0.18010485  0.66270524    -0.11020
C113        C  0.49734732  0.17311417  0.68922350     0.03650
C114        C  0.49919182  0.19278903  0.70839735    -0.10440
H115        H  0.49669250  0.24663189  0.66848283     0.09250
H116        H  0.49425315  0.16485873  0.64791953     0.06780
H117        H  0.50083565  0.18733202  0.72891698     0.06620
C118        C  0.50545128  0.30001323  0.78144794     0.03660
C119        C  0.50638653  0.29270295  0.80810858    -0.12490
C120        C  0.50620057  0.31184903  0.82781150     0.01160
C121        C  0.50539064  0.33839463  0.82084136    -0.11020
C122        C  0.50333366  0.34615818  0.79445812     0.03650
C123        C  0.50365874  0.32681437  0.77476069    -0.10440
H124        H  0.50682120  0.27214447  0.81354619     0.09250
H125        H  0.50557175  0.35307856  0.83622029     0.06780
H126        H  0.50182366  0.33251027  0.75432575     0.06620
O127        O  0.50097746  0.97032379  0.68107955    -0.72410
O128        O  0.50262484  0.04904718  0.68167482    -0.73390
O129        O  0.54074914  0.00918595  0.68349460    -0.62010
O130        O  0.46316640  0.01022634  0.67914527    -0.70420
O131        O  0.46006423  0.00959986  0.72250925    -0.69980
O132        O  0.53905364  0.00893786  0.72702054    -0.61230
O133        O  0.49981834  0.04880199  0.72523259    -0.73740
O134        O  0.49929078  0.96964289  0.72468941    -0.72520
Cu135      Cu  0.50199347  0.00969204  0.67990853     1.04560
Cu136      Cu  0.49948989  0.00921988  0.72645940     1.04330
C137        C  0.49977791  0.95761382  0.70269227     0.93780
C138        C  0.50128735  0.06129219  0.70349063     0.92920
C139        C  0.55229574  0.00902222  0.70573749     0.85070
C140        C  0.44919140  0.00992110  0.69983964     0.91340
C141        C  0.99734860  0.21889578  0.77769223     0.03660
C142        C  0.99566686  0.22490492  0.80463258    -0.12490
C143        C  0.99211025  0.20483221  0.82330662     0.01160
C144        C  0.99025700  0.17876813  0.81450383    -0.11020
C145        C  0.99393728  0.17250369  0.78807369     0.03650
C146        C  0.99724412  0.19256743  0.76957764    -0.10440
H147        H  0.99758540  0.24510367  0.81091609     0.09250
H148        H  0.98732192  0.16296244  0.82847999     0.06780
H149        H  0.99956550  0.18772714  0.74898847     0.06620
C150        C  0.00412999  0.30021874  0.69887724     0.03660
C151        C  0.00285436  0.32704294  0.70503990    -0.12490
C152        C  0.00141850  0.34589367  0.68496826     0.01160
C153        C  0.00045390  0.33768201  0.65870729    -0.11020
C154        C  0.00153667  0.31099726  0.65236089     0.03650
C155        C  0.00373113  0.29227905  0.67243664    -0.10440
H156        H  0.00289468  0.33321725  0.72540705     0.09250
H157        H  0.99903675  0.35212003  0.64310471     0.06780
H158        H  0.00433990  0.27160741  0.66754760     0.06620
C159        C  0.20964749  0.00572276  0.77976628     0.03660
C160        C  0.18326093  0.00527201  0.77178156    -0.12490
C161        C  0.16325276  0.00262541  0.79044357     0.01160
C162        C  0.17007343  0.99980481  0.81700279    -0.11020
C163        C  0.19595391  0.00300309  0.82566304     0.03650
C164        C  0.21573124  0.00595747  0.80675755    -0.10440
H165        H  0.17840195  0.00756410  0.75118663     0.09250
H166        H  0.15469720  0.99668973  0.83130209     0.06780
H167        H  0.23581637  0.00856875  0.81291551     0.06620
C168        C  0.29059437  0.01370629  0.70070754     0.03660
C169        C  0.28281718  0.01572151  0.67432272    -0.12490
C170        C  0.30152262  0.01805477  0.65448155     0.01160
C171        C  0.32798755  0.01918230  0.66107157    -0.11020
C172        C  0.33643066  0.01560199  0.68712827     0.03650
C173        C  0.31742943  0.01274340  0.70696949    -0.10440
H174        H  0.26225479  0.01547290  0.66921043     0.09250
H175        H  0.34212660  0.02183158  0.64545281     0.06780
H176        H  0.32331756  0.00935430  0.72712438     0.06620
O177        O  0.95945945  0.00809717  0.75663371    -0.72410
O178        O  0.03899090  0.00927657  0.75382276    -0.73390
O179        O  0.99980436  0.96907952  0.75628957    -0.62010
O180        O  0.99849344  0.04795834  0.75319626    -0.70420
O181        O  0.99939052  0.04945231  0.79681362    -0.69980
O182        O  0.00192519  0.97065859  0.79986162    -0.61230
O183        O  0.03942125  0.01133674  0.79733771    -0.73740
O184        O  0.96205883  0.00894875  0.80003322    -0.72520
Cu185      Cu  0.99915313  0.00850288  0.75337627     1.04560
Cu186      Cu  0.00077401  0.01012826  0.79993834     1.04330
C187        C  0.94831499  0.00835778  0.77917445     0.93780
C188        C  0.05161805  0.01098021  0.77551585     0.92920
C189        C  0.00110677  0.95750840  0.77852436     0.85070
C190        C  0.99833866  0.06104128  0.77455563     0.91340
C191        C  0.20938739  0.51250654  0.70061678     0.03660
C192        C  0.21684812  0.51223417  0.67403106    -0.12490
C193        C  0.19800284  0.50926621  0.65431167     0.01160
C194        C  0.17197123  0.50473384  0.66142891    -0.11020
C195        C  0.16356803  0.50739158  0.68757164     0.03650
C196        C  0.18259075  0.51143056  0.70717765    -0.10440
H197        H  0.23720814  0.51458003  0.66869738     0.09250
H198        H  0.15785312  0.50078888  0.64604288     0.06780
H199        H  0.17674450  0.51404830  0.72743230     0.06620
C200        C  0.28997640  0.51686725  0.78051300     0.03660
C201        C  0.31655342  0.51470825  0.77339640    -0.12490
C202        C  0.33566049  0.50964016  0.79269764     0.01160
C203        C  0.32748214  0.50648431  0.81886684    -0.11020
C204        C  0.30186422  0.51193423  0.82651782     0.03650
C205        C  0.28295213  0.51632478  0.80721749    -0.10440
H206        H  0.32214368  0.51680285  0.75300322     0.09250
H207        H  0.34155787  0.50131556  0.83392114     0.06780
H208        H  0.26280975  0.51948936  0.81291032     0.06620
O209        O  0.99924708  0.46963482  0.72231354    -0.72410
O210        O  0.99896627  0.54878937  0.72315081    -0.73390
O211        O  0.95942294  0.50911308  0.72267490    -0.62010
O212        O  0.03884767  0.50956603  0.72214912    -0.70420
O213        O  0.03749584  0.50850199  0.67865181    -0.69980
O214        O  0.96002547  0.51087205  0.67913835    -0.61230
O215        O  0.00005390  0.54893067  0.67953551    -0.73740
O216        O  0.99712241  0.47042413  0.67872584    -0.72520
Cu217      Cu  0.99914729  0.50918196  0.72420133     1.04560
Cu218      Cu  0.99869316  0.50963771  0.67759885     1.04330
C219        C  0.99769529  0.45766314  0.70032622     0.93780
C220        C  0.99953080  0.56127175  0.70135680     0.92920
C221        C  0.94733767  0.51065775  0.70067265     0.85070
C222        C  0.05061014  0.50959136  0.69994453     0.91340
O223        O  0.46237477  0.50868521  0.80134187    -0.72410
O224        O  0.53960938  0.51336251  0.79982837    -0.73390
O225        O  0.49850291  0.55003488  0.80005976    -0.62010
O226        O  0.50273206  0.47148311  0.80068403    -0.70420
O227        O  0.50137453  0.47081921  0.75717438    -0.69980
O228        O  0.49857839  0.54994762  0.75641409    -0.61230
O229        O  0.53959184  0.51228102  0.75624472    -0.73740
O230        O  0.46014140  0.50881110  0.75795942    -0.72520
Cu231      Cu  0.50090545  0.51080514  0.80187965     1.04560
Cu232      Cu  0.49992007  0.51036276  0.75532153     1.04330
C233        C  0.44878699  0.50869214  0.78039298     0.93780
C234        C  0.55191054  0.51428314  0.77806940     0.92920
C235        C  0.49789650  0.56235060  0.77819733     0.85070
C236        C  0.50222320  0.45866509  0.77912241     0.91340
C237        C  0.50195839  0.72091425  0.19817321     0.03660
C238        C  0.50063173  0.69446228  0.20603450    -0.12490
C239        C  0.49871343  0.67449425  0.18724842     0.01160
C240        C  0.49751617  0.68092987  0.16055397    -0.11020
C241        C  0.49884240  0.70713889  0.15239285     0.03650
C242        C  0.50126140  0.72710225  0.17120068    -0.10440
H243        H  0.50081751  0.68939469  0.22671980     0.09250
H244        H  0.49597221  0.66544956  0.14604363     0.06780
H245        H  0.50230229  0.74738317  0.16486653     0.06620
C246        C  0.49860977  0.80106272  0.27870967     0.03660
C247        C  0.49980871  0.82781629  0.27191654    -0.12490
C248        C  0.49967593  0.84709543  0.29151396     0.01160
C249        C  0.49846857  0.83964553  0.31794565    -0.11020
C250        C  0.49698763  0.81309421  0.32502876     0.03650
C251        C  0.49748880  0.79382892  0.30538613    -0.10440
H252        H  0.50101070  0.83362888  0.25146273     0.09250
H253        H  0.49838481  0.85460662  0.33306391     0.06780
H254        H  0.49638410  0.77329202  0.31082036     0.06620
O255        O  0.49946062  0.70128729  0.94783923    -0.72410
O256        O  0.50138123  0.69720340  0.02651194    -0.73390
O257        O  0.46190624  0.69861948  0.98795234    -0.62010
O258        O  0.53944661  0.69949613  0.98585407    -0.70420
O259        O  0.53979078  0.74300441  0.98773501    -0.69980
O260        O  0.46055316  0.74197503  0.99045987    -0.61230
O261        O  0.50167234  0.74073791  0.02871429    -0.73740
O262        O  0.49875729  0.74480297  0.94982761    -0.72520
Cu263      Cu  0.50060289  0.69771005  0.98705069     1.04560
Cu264      Cu  0.50020444  0.74422401  0.98934394     1.04330
C265        C  0.49883432  0.72362726  0.93645716     0.93780
C266        C  0.50166964  0.71832556  0.03997185     0.92920
C267        C  0.44878746  0.71981490  0.98897276     0.85070
C268        C  0.55194382  0.72118708  0.98569933     0.91340
C269        C  0.20991373  0.79871870  0.98253627     0.03660
C270        C  0.21555630  0.82583621  0.98372091    -0.12490
C271        C  0.19590864  0.84401537  0.99032274     0.01160
C272        C  0.17068811  0.83406398  0.99513843    -0.11020
C273        C  0.16381401  0.80838713  0.98829269     0.03650
C274        C  0.18370322  0.79029071  0.98322360    -0.10440
H275        H  0.23527151  0.83229554  0.97963237     0.09250
H276        H  0.15538365  0.84681805  0.00228193     0.06780
H277        H  0.17887189  0.76985936  0.97996752     0.06620
C278        C  0.29086768  0.71964096  0.98328163     0.03660
C279        C  0.31754688  0.72635490  0.98494792    -0.12490
C280        C  0.33612946  0.70748099  0.99210623     0.01160
C281        C  0.32763161  0.68196516  0.99777957    -0.11020
C282        C  0.30170217  0.67417151  0.99344658     0.03650
C283        C  0.28314480  0.69328098  0.98667358    -0.10440
H284        H  0.32371648  0.74623940  0.98061713     0.09250
H285        H  0.34182236  0.66740760  0.00387027     0.06780
H286        H  0.26288200  0.68772536  0.98400063     0.06620
C287        C  0.99880259  0.80135357  0.20070762     0.03660
C288        C  0.99713721  0.82783108  0.20830034    -0.12490
C289        C  0.99500369  0.84768047  0.18933353     0.01160
C290        C  0.99427723  0.84100383  0.16265001    -0.11020
C291        C  0.99549989  0.81468774  0.15474282     0.03650
C292        C  0.99804777  0.79497050  0.17383086    -0.10440
H293        H  0.99716462  0.83300413  0.22894072     0.09250
H294        H  0.99298226  0.85638751  0.14797580     0.06780
H295        H  0.99923417  0.77464265  0.16776045     0.06620
C296        C  0.99791430  0.72055555  0.28107759     0.03660
C297        C  0.99908594  0.69379390  0.27442753    -0.12490
C298        C  0.99877670  0.67454574  0.29412581     0.01160
C299        C  0.99897987  0.68206702  0.32056576    -0.11020
C300        C  0.99888135  0.70865406  0.32751073     0.03650
C301        C  0.99749102  0.72779668  0.30774042    -0.10440
H302        H  0.99968967  0.68791161  0.25399018     0.09250
H303        H  0.99910216  0.66716390  0.33579273     0.06780
H304        H  0.99618486  0.74831018  0.31312797     0.06620
O305        O  0.95965456  0.77869844  0.99244507    -0.72410
O306        O  0.03860058  0.77395661  0.99002977    -0.73390
O307        O  0.00034356  0.77749132  0.03112774    -0.62010
O308        O  0.99815384  0.77558233  0.95146685    -0.70420
O309        O  0.00069019  0.81906759  0.95126648    -0.69980
O310        O  0.00123616  0.82102842  0.02945034    -0.61230
O311        O  0.04009266  0.81739037  0.99002646    -0.73740
O312        O  0.96246471  0.82195480  0.99054024    -0.72520
Cu313      Cu  0.99911601  0.77480414  0.99134533     1.04560
Cu314      Cu  0.00130272  0.82124928  0.99030576     1.04330
C315        C  0.94858658  0.80119392  0.99166415     0.93780
C316        C  0.05179625  0.79526062  0.98954472     0.92920
C317        C  0.00055833  0.79978411  0.04267405     0.85070
C318        C  0.99889683  0.79736669  0.93894627     0.91340
C319        C  0.20751457  0.72176311  0.49343730     0.03660
C320        C  0.21512919  0.69532722  0.49468028    -0.12490
C321        C  0.19632787  0.67532205  0.49357411     0.01160
C322        C  0.17010887  0.68206986  0.48963224    -0.11020
C323        C  0.16186881  0.70829414  0.49035466     0.03650
C324        C  0.18081746  0.72821771  0.49245993    -0.10440
H325        H  0.23561456  0.69045840  0.49684989     0.09250
H326        H  0.15575536  0.66660511  0.48711534     0.06780
H327        H  0.17494272  0.74859963  0.49317256     0.06620
C328        C  0.28918827  0.80021115  0.49560235     0.03660
C329        C  0.28265464  0.82685534  0.49821922    -0.12490
C330        C  0.30194116  0.84638082  0.49597306     0.01160
C331        C  0.32800612  0.83882782  0.49195952    -0.11020
C332        C  0.33490192  0.81234679  0.48924545     0.03650
C333        C  0.31532688  0.79310465  0.49107056    -0.10440
H334        H  0.26252244  0.83234291  0.50168381     0.09250
H335        H  0.34309025  0.85372614  0.49074365     0.06780
H336        H  0.32037681  0.77259493  0.48887093     0.06620
O337        O  0.99733137  0.70010075  0.45275214    -0.72410
O338        O  0.99733326  0.70113182  0.53124483    -0.73390
O339        O  0.95853422  0.70178471  0.49177356    -0.62010
O340        O  0.03631864  0.69978322  0.49221675    -0.70420
O341        O  0.03790069  0.74328678  0.49180458    -0.69980
O342        O  0.95884846  0.74527881  0.49070401    -0.61230
O343        O  0.99795462  0.74472129  0.53106609    -0.73740
O344        O  0.99871942  0.74362839  0.45160546    -0.72520
Cu345      Cu  0.99735605  0.69927564  0.49201619     1.04560
Cu346      Cu  0.99842629  0.74584127  0.49127718     1.04330
C347        C  0.99764863  0.72153269  0.43978391     0.93780
C348        C  0.99756093  0.72291762  0.54353439     0.92920
C349        C  0.94627123  0.72356777  0.49095764     0.85070
C350        C  0.04948618  0.72108820  0.49256383     0.91340
O351        O  0.53805697  0.77822765  0.48928945    -0.72410
O352        O  0.45922822  0.77563229  0.48855040    -0.73390
O353        O  0.49905188  0.77691040  0.44928224    -0.62010
O354        O  0.49868454  0.77709718  0.52864514    -0.70420
O355        O  0.49761418  0.82066454  0.52800582    -0.69980
O356        O  0.49658176  0.82041187  0.44960107    -0.61230
O357        O  0.45816271  0.81911050  0.48871747    -0.73740
O358        O  0.53602254  0.82162389  0.48827801    -0.72520
Cu359      Cu  0.49875548  0.77536718  0.48899268     1.04560
Cu360      Cu  0.49704152  0.82189297  0.48871230     1.04330
C361        C  0.54945964  0.80056378  0.48857343     0.93780
C362        C  0.44630000  0.79704858  0.48816227     0.92920
C363        C  0.49776179  0.79881205  0.43705035     0.85070
C364        C  0.49872510  0.79908098  0.54069027     0.91340
C365        C  0.50418940  0.21968928  0.27982454     0.03660
C366        C  0.50475947  0.22669033  0.30651825    -0.12490
C367        C  0.50164616  0.20748247  0.32609775     0.01160
C368        C  0.49937407  0.18105813  0.31877979    -0.11020
C369        C  0.49976666  0.17362988  0.29226515     0.03650
C370        C  0.50166356  0.19311996  0.27277157    -0.10440
H371        H  0.50725052  0.24707858  0.31197855     0.09250
H372        H  0.49770669  0.16611968  0.33388324     0.06780
H373        H  0.50115169  0.18766343  0.25220876     0.06620
C374        C  0.50170651  0.30183510  0.20116878     0.03660
C375        C  0.50081996  0.32859760  0.20793867    -0.12490
C376        C  0.50017627  0.34794073  0.18820935     0.01160
C377        C  0.50170412  0.34028926  0.16179531    -0.11020
C378        C  0.50290966  0.31378588  0.15484775     0.03650
C379        C  0.50292321  0.29453614  0.17456945    -0.10440
H380        H  0.49981497  0.33423944  0.22842818     0.09250
H381        H  0.50169989  0.35506419  0.14644457     0.06780
H382        H  0.50351064  0.27397273  0.16924416     0.06620
O383        O  0.49705223  0.04912570  0.29733823    -0.72410
O384        O  0.50461538  0.97094171  0.29676080    -0.73390
O385        O  0.53953089  0.01382441  0.29575006    -0.62010
O386        O  0.46228068  0.00615363  0.29845914    -0.70420
O387        O  0.45995404  0.00826178  0.25497598    -0.69980
O388        O  0.53895258  0.01200641  0.25218391    -0.61230
O389        O  0.50088683  0.97073092  0.25326037    -0.73740
O390        O  0.49782621  0.04985570  0.25371164    -0.72520
Cu391      Cu  0.50094429  0.01002584  0.29851917     1.04560
Cu392      Cu  0.49936412  0.01025517  0.25191496     1.04330
C393        C  0.49651591  0.06185089  0.27571083     0.93780
C394        C  0.50340176  0.95849474  0.27504637     0.92920
C395        C  0.55157453  0.01396071  0.27380956     0.85070
C396        C  0.44881728  0.00581765  0.27735093     0.91340
O397        O  0.49825072  0.27400695  0.95192270    -0.72410
O398        O  0.49941812  0.27550959  0.03114626    -0.73390
O399        O  0.45893947  0.27680710  0.99206629    -0.62010
O400        O  0.53823505  0.27365009  0.99072436    -0.70420
O401        O  0.53895433  0.31715510  0.98881724    -0.69980
O402        O  0.46164154  0.32015557  0.99246266    -0.61230
O403        O  0.50163278  0.31903527  0.03017048    -0.73740
O404        O  0.49835614  0.31757921  0.95126847    -0.72520
Cu405      Cu  0.49862440  0.27338432  0.99156439     1.04560
Cu406      Cu  0.50024441  0.31990595  0.99070003     1.04330
C407        C  0.49812172  0.29561455  0.93918598     0.93780
C408        C  0.50058088  0.29752225  0.04305118     0.92920
C409        C  0.44784801  0.29933268  0.99218683     0.85070
C410        C  0.55092318  0.29524195  0.98874156     0.91340
C411        C  0.20977326  0.30140002  0.48482974     0.03660
C412        C  0.21724576  0.32802598  0.48446360    -0.12490
C413        C  0.19843281  0.34770133  0.48104588     0.01160
C414        C  0.17231926  0.34032451  0.47728883    -0.11020
C415        C  0.16398690  0.31428902  0.48083152     0.03650
C416        C  0.18301112  0.29477523  0.48452759    -0.10440
H417        H  0.23755505  0.33331658  0.48735126     0.09250
H418        H  0.15800472  0.35547571  0.47339307     0.06780
H419        H  0.17715029  0.27454434  0.48728709     0.06620
C420        C  0.28928774  0.22114869  0.49334045     0.03660
C421        C  0.31587305  0.22816372  0.49474899    -0.12490
C422        C  0.33504164  0.20874506  0.49738620     0.01160
C423        C  0.32724830  0.18246847  0.49943541    -0.11020
C424        C  0.30120759  0.17476105  0.49517098     0.03650
C425        C  0.28220588  0.19443158  0.49217312    -0.10440
H426        H  0.32159273  0.24860080  0.49345366     0.09250
H427        H  0.34210989  0.16771076  0.50269456     0.06780
H428        H  0.26204585  0.18920570  0.48838408     0.06620
O429        O  0.00094958  0.27780135  0.52723467    -0.72410
O430        O  0.99879235  0.28132914  0.44791710    -0.73390
O431        O  0.03942966  0.28039993  0.48639658    -0.62010
O432        O  0.96000250  0.27902364  0.48860418    -0.70420
O433        O  0.96055903  0.32241037  0.48997228    -0.69980
O434        O  0.03793350  0.32368317  0.48919421    -0.61230
O435        O  0.99906516  0.32477782  0.45031209    -0.73740
O436        O  0.99961642  0.32132777  0.52882564    -0.72520
Cu437      Cu  0.99977069  0.27800559  0.48745751     1.04560
Cu438      Cu  0.99923215  0.32443748  0.48960656     1.04330
C439        C  0.00060820  0.29913360  0.54041015     0.93780
C440        C  0.99929499  0.30377754  0.43667021     0.92920
C441        C  0.05114642  0.30260281  0.48766000     0.85070
C442        C  0.94781401  0.30089474  0.48992257     0.91340
O443        O  0.26454377  0.01289340  0.53050806    -0.72410
O444        O  0.26647839  0.00785936  0.45159370    -0.73390
O445        O  0.26559384  0.97062626  0.49397056    -0.62010
O446        O  0.26600190  0.05005568  0.48854484    -0.70420
O447        O  0.30925030  0.04892687  0.48820004    -0.69980
O448        O  0.30886036  0.97153278  0.49639468    -0.61230
O449        O  0.30978554  0.00633208  0.45316670    -0.73740
O450        O  0.30794196  0.01455600  0.53120171    -0.72520
Cu451      Cu  0.26404093  0.01032842  0.49106013     1.04560
Cu452      Cu  0.31037481  0.01029245  0.49223638     1.04330
C453        C  0.28602374  0.01498181  0.54313344     0.93780
C454        C  0.28854360  0.00637597  0.43996041     0.92920
C455        C  0.28742439  0.95871134  0.49675798     0.85070
C456        C  0.28805240  0.06195575  0.48746358     0.91340
C457        C  0.20939328  0.22003156  0.98746344     0.03660
C458        C  0.18264251  0.22614786  0.98543342    -0.12490
C459        C  0.16365729  0.20636045  0.98799307     0.01160
C460        C  0.17199189  0.18040942  0.99178336    -0.11020
C461        C  0.19851282  0.17374079  0.99289516     0.03650
C462        C  0.21720583  0.19385130  0.99130185    -0.10440
H463        H  0.17675407  0.24625074  0.98196798     0.09250
H464        H  0.15753268  0.16500026  0.99369950     0.06780
H465        H  0.23775562  0.18929291  0.99345316     0.06620
C466        C  0.28937530  0.29998848  0.99426277     0.03660
C467        C  0.31610156  0.29340310  0.99506573    -0.12490
C468        C  0.33514793  0.31296422  0.99921511     0.01160
C469        C  0.32676313  0.33897941  0.00257408    -0.11020
C470        C  0.30074031  0.34619594  0.99829880     0.03650
C471        C  0.28198948  0.32653902  0.99447721    -0.10440
H472        H  0.32188280  0.27318122  0.99239632     0.09250
H473        H  0.34090433  0.35425315  0.00682749     0.06780
H474        H  0.26173859  0.33181100  0.99129008     0.06620
C475        C  0.21032468  0.00694703  0.20194761     0.03660
C476        C  0.18390181  0.00816872  0.20954193    -0.12490
C477        C  0.16435511  0.01247747  0.19066994     0.01160
C478        C  0.17164355  0.01609374  0.16439801    -0.11020
C479        C  0.19739138  0.01198960  0.15598376     0.03650
C480        C  0.21678106  0.00750368  0.17502224    -0.10440
H481        H  0.17862599  0.00573853  0.23000552     0.09250
H482        H  0.15662663  0.02050527  0.15002977     0.06780
H483        H  0.23678639  0.00411546  0.16906282     0.06620
C484        C  0.29117118  0.99989354  0.28140605     0.03660
C485        C  0.31779575  0.00084989  0.27452184    -0.12490
C486        C  0.33709173  0.00403243  0.29387805     0.01160
C487        C  0.32944692  0.00563432  0.32026517    -0.11020
C488        C  0.30328067  0.00244757  0.32768692     0.03650
C489        C  0.28403476  0.00056015  0.30811644    -0.10440
H490        H  0.32340797  0.99911712  0.25408358     0.09250
H491        H  0.34414359  0.00850789  0.33534829     0.06780
H492        H  0.26363283  0.99938965  0.31364003     0.06620
C493        C  0.00154544  0.22111127  0.19913736     0.03660
C494        C  0.00302534  0.19461263  0.20665869    -0.12490
C495        C  0.00324330  0.17477833  0.18753685     0.01160
C496        C  0.00246862  0.18187355  0.16090434    -0.11020
C497        C  0.00136827  0.20824291  0.15307545     0.03650
C498        C  0.00083221  0.22788839  0.17235977    -0.10440
H499        H  0.00391035  0.18950618  0.22731428     0.09250
H500        H  0.00256606  0.16666771  0.14603879     0.06780
H501        H  0.99941277  0.24831301  0.16661539     0.06620
C502        C  0.99885000  0.30201369  0.27814428     0.03660
C503        C  0.99782908  0.32807610  0.26925535    -0.12490
C504        C  0.99583125  0.34865289  0.28731656     0.01160
C505        C  0.99461021  0.34308123  0.31422967    -0.11020
C506        C  0.99604415  0.31714197  0.32354527     0.03650
C507        C  0.99826255  0.29661276  0.30522897    -0.10440
H508        H  0.99890239  0.33232471  0.24841233     0.09250
H509        H  0.99301030  0.35919844  0.32799571     0.06780
H510        H  0.00005656  0.27651925  0.31193092     0.06620
O511        O  0.03953763  0.00808268  0.18291628    -0.72410
O512        O  0.96181802  0.01306850  0.18337350    -0.73390
O513        O  0.00347894  0.04953773  0.18238627    -0.62010
O514        O  0.99826558  0.97140245  0.18371968    -0.70420
O515        O  0.99966620  0.97170361  0.22732058    -0.69980
O516        O  0.00242491  0.05095055  0.22594529    -0.61230
O517        O  0.96163449  0.01246130  0.22701203    -0.73740
O518        O  0.04051676  0.00994161  0.22644290    -0.72520
Cu519      Cu  0.00072606  0.01050738  0.18165542     1.04560
Cu520      Cu  0.00106004  0.01130371  0.22828653     1.04330
C521        C  0.05239081  0.00810454  0.20442579     0.93780
C522        C  0.94940148  0.01328645  0.20511353     0.92920
C523        C  0.00387349  0.06263061  0.20372595     0.85070
C524        C  0.99866911  0.95916061  0.20560569     0.91340
O525        O  0.18532406  0.97228881  0.98911432    -0.72410
O526        O  0.18882344  0.04988660  0.99317376    -0.73390
O527        O  0.18679438  0.01295672  0.95202392    -0.62010
O528        O  0.18704733  0.00904929  0.02978924    -0.70420
O529        O  0.23031302  0.00835804  0.03066686    -0.69980
O530        O  0.22989006  0.00958025  0.95091270    -0.61230
O531        O  0.23214132  0.04867312  0.99179768    -0.73740
O532        O  0.22837365  0.96943894  0.99047472    -0.72520
Cu533      Cu  0.18563883  0.01113677  0.99094948     1.04560
Cu534      Cu  0.23182738  0.00897826  0.99085761     1.04330
C535        C  0.20592727  0.95833511  0.98979987     0.93780
C536        C  0.21086432  0.06161860  0.99378996     0.92920
C537        C  0.20794690  0.01151452  0.93892966     0.85070
C538        C  0.20836638  0.00808980  0.04270539     0.91340
O539        O  0.96008714  0.24230744  0.98862686    -0.72410
O540        O  0.03928905  0.23888532  0.98710518    -0.73390
O541        O  0.99866250  0.24011577  0.94804297    -0.62010
O542        O  0.00038857  0.24144982  0.02765697    -0.70420
O543        O  0.99845382  0.19797894  0.02789858    -0.69980
O544        O  0.99664476  0.19667917  0.94965088    -0.61230
O545        O  0.03664449  0.19559317  0.98767397    -0.73740
O546        O  0.95907722  0.19878896  0.98978442    -0.72520
Cu547      Cu  0.99971323  0.24232392  0.98782486     1.04560
Cu548      Cu  0.99768820  0.19587708  0.98877943     1.04330
C549        C  0.94721924  0.22075727  0.98953644     0.93780
C550        C  0.05044632  0.21641278  0.98689978     0.92920
C551        C  0.99757045  0.21793272  0.93636801     0.85070
C552        C  0.99903634  0.21973662  0.04023157     0.91340
C553        C  0.21038458  0.50630175  0.27965827     0.03660
C554        C  0.21599202  0.50367553  0.30652251    -0.12490
C555        C  0.19587055  0.50476522  0.32531968     0.01160
C556        C  0.17002225  0.50798597  0.31634428    -0.11020
C557        C  0.16408106  0.50819883  0.28939722     0.03650
C558        C  0.18443456  0.50819974  0.27108958    -0.10440
H559        H  0.23609472  0.50097129  0.31255054     0.09250
H560        H  0.15417440  0.51002766  0.33023532     0.06780
H561        H  0.18012075  0.50895257  0.25024851     0.06620
C562        C  0.29040310  0.50494403  0.20049590     0.03660
C563        C  0.31684237  0.50826361  0.20705134    -0.12490
C564        C  0.33594796  0.50864455  0.18730035     0.01160
C565        C  0.32824529  0.50513536  0.16104927    -0.11020
C566        C  0.30181722  0.50224626  0.15427564     0.03650
C567        C  0.28287592  0.50243296  0.17411459    -0.10440
H568        H  0.32243978  0.51068764  0.22744619     0.09250
H569        H  0.34289589  0.50492950  0.14569957     0.06780
H570        H  0.26239654  0.50023285  0.16912392     0.06620
O571        O  0.00129948  0.54873342  0.29855713    -0.72410
O572        O  0.00393430  0.47051894  0.29244696    -0.73390
O573        O  0.04153055  0.51103376  0.29366669    -0.62010
O574        O  0.96373442  0.50800827  0.29709750    -0.70420
O575        O  0.96107523  0.51308553  0.25392099    -0.69980
O576        O  0.04005922  0.51244841  0.25016358    -0.61230
O577        O  0.99973638  0.47317810  0.24908461    -0.73740
O578        O  0.00125746  0.55233504  0.25505060    -0.72520
Cu579      Cu  0.00270235  0.50950776  0.29687824     1.04560
Cu580      Cu  0.00047262  0.51293299  0.25045140     1.04330
C581        C  0.00116824  0.56285907  0.27784003     0.93780
C582        C  0.00185584  0.45947910  0.27004775     0.92920
C583        C  0.05321250  0.51180510  0.27151891     0.85070
C584        C  0.94999822  0.50999838  0.27624127     0.91340
O585        O  0.30944572  0.54817587  0.99248048    -0.72410
O586        O  0.30838349  0.47029534  0.98941714    -0.73390
O587        O  0.30931138  0.51066967  0.95199475    -0.62010
O588        O  0.30861471  0.50727503  0.03007596    -0.70420
O589        O  0.26525136  0.50885148  0.03028721    -0.69980
O590        O  0.26597282  0.51045523  0.95088904    -0.61230
O591        O  0.26501918  0.47014599  0.98982224    -0.73740
O592        O  0.26615577  0.54953553  0.99125366    -0.72520
Cu593      Cu  0.31033898  0.50914041  0.99106624     1.04560
Cu594      Cu  0.26397672  0.50980684  0.99060226     1.04330
C595        C  0.28826600  0.56131774  0.99155208     0.93780
C596        C  0.28674287  0.45782829  0.98891218     0.92920
C597        C  0.28797567  0.51066676  0.93898084     0.85070
C598        C  0.28701974  0.50733860  0.04256470     0.91340
O599        O  0.19121680  0.55060750  0.49077030    -0.72410
O600        O  0.19117226  0.47255634  0.49059845    -0.73390
O601        O  0.19150418  0.51159014  0.52947981    -0.62010
O602        O  0.19095799  0.51141206  0.45141110    -0.70420
O603        O  0.23419875  0.51096290  0.45015316    -0.69980
O604        O  0.23486862  0.51164172  0.52980815    -0.61230
O605        O  0.23450548  0.47186419  0.49026974    -0.73740
O606        O  0.23454191  0.55143537  0.48993892    -0.72520
Cu607      Cu  0.18983512  0.51157848  0.49049548     1.04560
Cu608      Cu  0.23615684  0.51154712  0.48997351     1.04330
C609        C  0.21264085  0.56348336  0.49091894     0.93780
C610        C  0.21257345  0.45976883  0.49082800     0.92920
C611        C  0.21306100  0.51155614  0.54209219     0.85070
C612        C  0.21217395  0.51058778  0.43824914     0.91340
O613        O  0.45859572  0.19858084  0.48925259    -0.72410
O614        O  0.53628432  0.19574035  0.49272986    -0.73390
O615        O  0.49561196  0.19745442  0.53022652    -0.62010
O616        O  0.49920010  0.19655990  0.45178762    -0.70420
O617        O  0.49982121  0.24007762  0.45082936    -0.69980
O618        O  0.49908483  0.24089405  0.53028995    -0.61230
O619        O  0.53872636  0.23904575  0.49089713    -0.73740
O620        O  0.45980315  0.24209895  0.49024090    -0.72520
Cu621      Cu  0.49734944  0.19565363  0.49102878     1.04560
Cu622      Cu  0.49938350  0.24213423  0.49055360     1.04330
C623        C  0.44683571  0.22063125  0.48925714     0.93780
C624        C  0.54996797  0.21669365  0.49209735     0.92920
C625        C  0.49707815  0.21912241  0.54267183     0.85070
C626        C  0.50036014  0.21801569  0.43890349     0.91340
O627        O  0.45944544  0.50979193  0.22476926    -0.72410
O628        O  0.53844267  0.51293928  0.22632255    -0.73390
O629        O  0.49761406  0.55081348  0.22708825    -0.62010
O630        O  0.50044289  0.47175584  0.22433162    -0.70420
O631        O  0.50080491  0.47370601  0.18074537    -0.69980
O632        O  0.49758232  0.55206343  0.18343407    -0.61230
O633        O  0.53841622  0.51496172  0.18275845    -0.73740
O634        O  0.46067537  0.51141065  0.18120728    -0.72520
Cu635      Cu  0.49897336  0.51121884  0.22722723     1.04560
Cu636      Cu  0.49946026  0.51302389  0.18059058     1.04330
C637        C  0.44769068  0.51031111  0.20255693     0.93780
C638        C  0.55077616  0.51501527  0.20456955     0.92920
C639        C  0.49697321  0.56375297  0.20557274     0.85070
C640        C  0.50084790  0.46032870  0.20199819     0.91340
C641        C  0.70839502  0.50420808  0.20109466     0.03660
C642        C  0.68226839  0.50808591  0.20886445    -0.12490
C643        C  0.66217898  0.50888153  0.18999301     0.01160
C644        C  0.66864585  0.50631900  0.16334171    -0.11020
C645        C  0.69446276  0.50199553  0.15530260     0.03650
C646        C  0.71428380  0.50111636  0.17433121    -0.10440
H647        H  0.67769437  0.51093331  0.22943763     0.09250
H648        H  0.65335215  0.50756866  0.14866501     0.06780
H649        H  0.73434040  0.49790749  0.16837600     0.06620
C650        C  0.79138089  0.51029761  0.27865769     0.03660
C651        C  0.81807877  0.51059404  0.27160285    -0.12490
C652        C  0.83761897  0.51260737  0.29102613     0.01160
C653        C  0.83002088  0.51401698  0.31746654    -0.11020
C654        C  0.80385215  0.51115368  0.32489674     0.03650
C655        C  0.78453279  0.51017861  0.30543413    -0.10440
H656        H  0.82355470  0.50873890  0.25114860     0.09250
H657        H  0.84476152  0.51610824  0.33263200     0.06780
H658        H  0.76419079  0.50882151  0.31115159     0.06620
O659        O  0.73043933  0.54593158  0.99115560    -0.72410
O660        O  0.73298663  0.46657541  0.99158087    -0.73390
O661        O  0.73213762  0.50610950  0.95155278    -0.62010
O662        O  0.73137887  0.50611662  0.03082993    -0.70420
O663        O  0.68812080  0.50439908  0.03002016    -0.69980
O664        O  0.68879387  0.50422975  0.95160060    -0.61230
O665        O  0.68960669  0.46576256  0.99137108    -0.73740
O666        O  0.68718924  0.54372149  0.99095356    -0.72520
Cu667      Cu  0.73333166  0.50631408  0.99121826     1.04560
Cu668      Cu  0.68700927  0.50458282  0.99087209     1.04330
C669        C  0.70817443  0.55728153  0.99156526     0.93780
C670        C  0.71144404  0.45378326  0.99205251     0.92920
C671        C  0.71044500  0.50459661  0.93914855     0.85070
C672        C  0.70954523  0.50464308  0.04290205     0.91340
C673        C  0.78959112  0.21738954  0.98876363     0.03660
C674        C  0.81598712  0.22503622  0.98985484    -0.12490
C675        C  0.83576529  0.20613397  0.98879408     0.01160
C676        C  0.82892573  0.17973117  0.98530824    -0.11020
C677        C  0.80274354  0.17150591  0.98600689     0.03650
C678        C  0.78306642  0.19056217  0.98777077    -0.10440
H679        H  0.82106757  0.24558136  0.99190389     0.09250
H680        H  0.84427760  0.16525353  0.98340061     0.06780
H681        H  0.76276143  0.18463707  0.98892599     0.06620
C682        C  0.70849292  0.29582089  0.99432869     0.03660
C683        C  0.68194232  0.28913184  0.99168956    -0.12490
C684        C  0.66268924  0.30866431  0.99205060     0.01160
C685        C  0.67035498  0.33500768  0.99428551    -0.11020
C686        C  0.69674982  0.34204476  0.99685451     0.03650
C687        C  0.71578890  0.32234615  0.99652839    -0.10440
H688        H  0.67629172  0.26874981  0.98953976     0.09250
H689        H  0.65559812  0.35021207  0.99413956     0.06780
H690        H  0.73625196  0.32760381  0.99816136     0.06620
C691        C  0.79186572  0.01816796  0.20091737     0.03660
C692        C  0.81822155  0.01878715  0.20882616    -0.12490
C693        C  0.83821482  0.01742027  0.19016418     0.01160
C694        C  0.83178524  0.01472310  0.16355674    -0.11020
C695        C  0.80564583  0.01517862  0.15501375     0.03650
C696        C  0.78572960  0.01637235  0.17397473    -0.10440
H697        H  0.82317145  0.02063957  0.22945014     0.09250
H698        H  0.84742575  0.01246994  0.14942675     0.06780
H699        H  0.76546699  0.01604782  0.16784632     0.06620
C700        C  0.70917370  0.01320939  0.27854369     0.03660
C701        C  0.68281761  0.01176684  0.27067164    -0.12490
C702        C  0.66294371  0.00937485  0.28949698     0.01160
C703        C  0.66977526  0.00790623  0.31615258    -0.11020
C704        C  0.69558772  0.01204371  0.32453603     0.03650
C705        C  0.71528545  0.01442580  0.30550997    -0.10440
H706        H  0.67780033  0.01260996  0.25000524     0.09250
H707        H  0.65451419  0.00484520  0.33057749     0.06780
H708        H  0.73535581  0.01745618  0.31158415     0.06620
O709        O  0.80775568  0.00833599  0.95116354    -0.72410
O710        O  0.81016704  0.00543801  0.02893986    -0.73390
O711        O  0.80785758  0.96775179  0.98865250    -0.62010
O712        O  0.80950221  0.04603137  0.99150126    -0.70420
O713        O  0.76616057  0.04724247  0.99184507    -0.69980
O714        O  0.76455437  0.96791281  0.99083468    -0.61230
O715        O  0.76691811  0.00683385  0.03127739    -0.73740
O716        O  0.76441083  0.00846879  0.95138328    -0.72520
Cu717      Cu  0.81019575  0.00683838  0.99001518     1.04560
Cu718      Cu  0.76387371  0.00761013  0.99138409     1.04330
C719        C  0.78607477  0.00886809  0.93880245     0.93780
C720        C  0.78928893  0.00599940  0.04257346     0.92920
C721        C  0.78611655  0.95539661  0.98931683     0.85070
C722        C  0.78823040  0.05906865  0.99210692     0.91340
C723        C  0.70877663  0.21957807  0.49402169     0.03660
C724        C  0.68194737  0.22599766  0.49373688    -0.12490
C725        C  0.66311615  0.20682786  0.48754445     0.01160
C726        C  0.67175066  0.18153717  0.48131827    -0.11020
C727        C  0.69773009  0.17394532  0.48540396     0.03650
C728        C  0.71640007  0.19320650  0.49138209    -0.10440
H729        H  0.67597291  0.24580968  0.49836491     0.09250
H730        H  0.65764382  0.16679898  0.47535501     0.06780
H731        H  0.73669658  0.18777669  0.49388149     0.06620
C732        C  0.78916121  0.29956310  0.49842011     0.03660
C733        C  0.78242317  0.32627060  0.49660571    -0.12490
C734        C  0.80117966  0.34506422  0.48963903     0.01160
C735        C  0.82672909  0.33677409  0.48455933    -0.11020
C736        C  0.83474640  0.31096392  0.48974594     0.03650
C737        C  0.81561685  0.29213358  0.49616148    -0.10440
H738        H  0.76249860  0.33226165  0.50042567     0.09250
H739        H  0.84106790  0.35113929  0.47823790     0.06780
H740        H  0.82115059  0.27188583  0.49923889     0.06620
O741        O  0.68870716  0.00970962  0.44993599    -0.72410
O742        O  0.68710508  0.00867899  0.52771994    -0.73390
O743        O  0.68791096  0.04801308  0.48926872    -0.62010
O744        O  0.68831131  0.97028068  0.48838683    -0.70420
O745        O  0.73160897  0.96973604  0.48927707    -0.69980
O746        O  0.73114240  0.04922231  0.49013982    -0.61230
O747        O  0.73028271  0.00879610  0.52976402    -0.73740
O748        O  0.73202181  0.01008825  0.44983188    -0.72520
Cu749      Cu  0.68667159  0.00913132  0.48880760     1.04560
Cu750      Cu  0.73293178  0.00945464  0.48981011     1.04330
C751        C  0.71025510  0.01021968  0.43738537     0.93780
C752        C  0.70801652  0.00875972  0.54126391     0.92920
C753        C  0.70914256  0.06109337  0.48997194     0.85070
C754        C  0.70973830  0.95755978  0.48834804     0.91340
O755        O  0.76606095  0.54930505  0.48740644    -0.72410
O756        O  0.76605391  0.46972380  0.48983996    -0.73390
O757        O  0.76547609  0.51055133  0.52828042    -0.62010
O758        O  0.76632792  0.50873587  0.44891965    -0.70420
O759        O  0.80969354  0.50846596  0.44996208    -0.69980
O760        O  0.80882543  0.51093483  0.52810172    -0.61230
O761        O  0.80933813  0.47090029  0.49029663    -0.73740
O762        O  0.80937819  0.54844612  0.48769132    -0.72520
Cu763      Cu  0.76433514  0.50954568  0.48858685     1.04560
Cu764      Cu  0.81068156  0.50967028  0.48903568     1.04330
C765        C  0.78806731  0.56129034  0.48666885     0.93780
C766        C  0.78805781  0.45786893  0.49096744     0.92920
C767        C  0.78723710  0.51106425  0.54064748     0.85070
C768        C  0.78832463  0.50856584  0.43701856     0.91340
C769        C  0.81411690  0.38961178  0.50343746    -0.11740
C770        C  0.79571017  0.37374500  0.49050989     0.05270
C771        C  0.77317899  0.38564855  0.47949870    -0.07020
C772        C  0.77020916  0.41310442  0.48129145    -0.07770
C773        C  0.78953021  0.42890260  0.49300882    -0.02320
C774        C  0.81147212  0.41676282  0.50469524     0.04500
N775        N  0.83123788  0.43158186  0.51821381     0.67000
H776        H  0.83083527  0.38074691  0.51302631     0.15900
H777        H  0.75348643  0.42231683  0.47207563     0.15610
N778        N  0.75395872  0.37066649  0.46531533     0.74710
O779        O  0.82493523  0.44735735  0.53620383    -0.38740
O780        O  0.85509352  0.42658296  0.51444407    -0.38690
O781        O  0.73021113  0.37727865  0.46601630    -0.39390
O782        O  0.76092349  0.35285640  0.44962832    -0.39460
C783        C  0.68586058  0.13040108  0.50223937    -0.11740
C784        C  0.70336747  0.14539835  0.48724967     0.05270
C785        C  0.72445841  0.13264026  0.47461261    -0.07020
C786        C  0.72675273  0.10510771  0.47691849    -0.07770
C787        C  0.70782381  0.09011457  0.49032962    -0.02320
C788        C  0.68720819  0.10320482  0.50318536     0.04500
N789        N  0.66738303  0.08951113  0.51760353     0.67000
H790        H  0.67013198  0.13992855  0.51278317     0.15900
H791        H  0.74251630  0.09517384  0.46685842     0.15610
N792        N  0.74277580  0.14678986  0.45847394     0.74710
O793        O  0.66322567  0.09608998  0.54110517    -0.38740
O794        O  0.64939695  0.07793234  0.50516225    -0.38690
O795        O  0.76603803  0.13886401  0.45644476    -0.39390
O796        O  0.73513807  0.16525660  0.44382433    -0.39460
C797        C  0.74855452  0.23876418  0.51533697    -0.11740
C798        C  0.72887486  0.24049687  0.49611705     0.05270
C799        C  0.72882924  0.26203043  0.47862856    -0.07020
C800        C  0.74805275  0.28138231  0.48098011    -0.07770
C801        C  0.76800317  0.27961471  0.49983283    -0.02320
C802        C  0.76811420  0.25815857  0.51757513     0.04500
N803        N  0.78725894  0.25607348  0.53822176     0.67000
H804        H  0.74837288  0.22240951  0.52895816     0.15900
H805        H  0.74828062  0.29731441  0.46684979     0.15610
N806        N  0.71057865  0.26368713  0.45722730     0.74710
O807        O  0.79575906  0.27636927  0.54960532    -0.38740
O808        O  0.79374046  0.23383013  0.54698669    -0.38690
O809        O  0.70139890  0.28566158  0.45048680    -0.39390
O810        O  0.70675283  0.24406509  0.44260093    -0.39460
C811        C  0.68805357  0.02584423  0.39745899    -0.11740
C812        C  0.70901971  0.01184217  0.40832508     0.05270
C813        C  0.72735946  0.00001482  0.39127928    -0.07020
C814        C  0.72324731  0.00125131  0.36391691    -0.07770
C815        C  0.70146809  0.01427435  0.35318500    -0.02320
C816        C  0.68445185  0.02784544  0.37032690     0.04500
N817        N  0.66388184  0.04437934  0.36058804     0.67000
H818        H  0.67456902  0.03600550  0.41028699     0.15900
H819        H  0.73646947  0.99082937  0.35104924     0.15610
N820        N  0.74942023  0.98569331  0.40115739     0.74710
O821        O  0.64209403  0.04506019  0.37218640    -0.38740
O822        O  0.66831740  0.06034073  0.34211961    -0.38690
O823        O  0.74645432  0.96880018  0.41908002    -0.39390
O824        O  0.77115004  0.98725610  0.38952667    -0.39460
C825        C  0.81257459  0.02276290  0.08120006    -0.11740
C826        C  0.79194869  0.00745102  0.07152357     0.05270
C827        C  0.77467591  0.99525911  0.08953388    -0.07020
C828        C  0.77900631  0.99852834  0.11674524    -0.07770
C829        C  0.79961369  0.01429112  0.12627971    -0.02320
C830        C  0.81560185  0.02764530  0.10795516     0.04500
N831        N  0.83384164  0.04753081  0.11600434     0.67000
H832        H  0.82592905  0.03213732  0.06767315     0.15900
H833        H  0.76678544  0.98790234  0.13049328     0.15610
N834        N  0.75377192  0.97845308  0.08083414     0.74710
O835        O  0.85551298  0.04994331  0.10439878    -0.38740
O836        O  0.82659900  0.06522765  0.13167619    -0.38690
O837        O  0.75710070  0.96301283  0.06176865    -0.39390
O838        O  0.73305419  0.97664662  0.09417080    -0.39460
C839        C  0.77249927  0.00015680  0.24176995    -0.11740
C840        C  0.77084666  0.01825715  0.22102308     0.05270
C841        C  0.74875178  0.03485085  0.21927429    -0.07020
C842        C  0.72870203  0.03234317  0.23795709    -0.07770
C843        C  0.73033875  0.01411267  0.25861779    -0.02320
C844        C  0.75252288  0.99767962  0.26041737     0.04500
N845        N  0.75468436  0.97770761  0.28030241     0.67000
H846        H  0.78907897  0.98701980  0.24285819     0.15900
H847        H  0.71205499  0.04538824  0.23690468     0.15610
N848        N  0.74673782  0.05489591  0.19942944     0.74710
O849        O  0.73527719  0.96343964  0.28596349    -0.38740
O850        O  0.77671288  0.97226215  0.29005867    -0.38690
O851        O  0.72463055  0.06139646  0.19054732    -0.39390
O852        O  0.76656728  0.06814443  0.19284393    -0.39460
C853        C  0.81235483  0.12797828  0.00516585    -0.11740
C854        C  0.79690879  0.14290681  0.98793970     0.05270
C855        C  0.77662962  0.13022431  0.97376175    -0.07020
C856        C  0.77295304  0.10297267  0.97679499    -0.07770
C857        C  0.78957143  0.08805478  0.99288678    -0.02320
C858        C  0.80906922  0.10091707  0.00769038     0.04500
N859        N  0.82497992  0.08695861  0.02621362     0.67000
H860        H  0.82701646  0.13754870  0.01718922     0.15900
H861        H  0.75810802  0.09312614  0.96523617     0.15610
N862        N  0.76073289  0.14413714  0.95513156     0.74710
O863        O  0.84861412  0.09332854  0.02955172    -0.38740
O864        O  0.81442669  0.07111503  0.04203739    -0.38690
O865        O  0.77111019  0.15992307  0.93908493    -0.39390
O866        O  0.73696719  0.13805029  0.95227198    -0.39460
C867        C  0.72912195  0.25747599  0.97295005    -0.11740
C868        C  0.72871382  0.27509702  0.99409494     0.05270
C869        C  0.74835953  0.27355777  0.01364841    -0.07020
C870        C  0.76829105  0.25490440  0.01103525    -0.07770
C871        C  0.76878459  0.23744806  0.98976789    -0.02320
C872        C  0.74903971  0.23884134  0.97037028     0.04500
N873        N  0.74957168  0.22243770  0.94741302     0.67000
H874        H  0.71440568  0.25901007  0.95770298     0.15900
H875        H  0.78313682  0.25340937  0.02615863     0.15610
N876        N  0.74793505  0.29004747  0.03658222     0.74710
O877        O  0.72846988  0.21487769  0.93696820    -0.38740
O878        O  0.77084347  0.21821436  0.93563661    -0.38690
O879        O  0.72657834  0.29545782  0.04769778    -0.39390
O880        O  0.76906443  0.29685489  0.04748132    -0.39460
C881        C  0.72293368  0.38066916  0.98192546    -0.11740
C882        C  0.70402342  0.37019040  0.99904473     0.05270
C883        C  0.69011542  0.38727187  0.01580863    -0.07020
C884        C  0.69334512  0.41437293  0.01289952    -0.07770
C885        C  0.71098339  0.42497134  0.99464617    -0.02320
C886        C  0.72674851  0.40793296  0.97955518     0.04500
N887        N  0.74554268  0.41764381  0.96086629     0.67000
H888        H  0.73365605  0.36762552  0.96910107     0.15900
H889        H  0.68215258  0.42745235  0.02530313     0.15610
N890        N  0.67286795  0.37746100  0.03592740     0.74710
O891        O  0.76595066  0.40461915  0.95614894    -0.38740
O892        O  0.74057360  0.43748717  0.94688265    -0.38690
O893        O  0.67846138  0.35678148  0.04839346    -0.39390
O894        O  0.65340044  0.39079289  0.04313804    -0.39460
C895        C  0.80789909  0.49127814  0.39655119    -0.11740
C896        C  0.78968478  0.50817831  0.40807119     0.05270
C897        C  0.77419153  0.52452012  0.39183496    -0.07020
C898        C  0.77816591  0.52414149  0.36448464    -0.07770
C899        C  0.79727288  0.50802127  0.35313467    -0.02320
C900        C  0.81149497  0.49051452  0.36933166     0.04500
N901        N  0.82930875  0.47161154  0.35847412     0.67000
H902        H  0.81917238  0.47817734  0.40892254     0.15900
H903        H  0.76732805  0.53761578  0.35214169     0.15610
N904        N  0.75564957  0.54268408  0.40264929     0.74710
O905        O  0.84952842  0.46501909  0.37107363    -0.38740
O906        O  0.82352191  0.45941390  0.33768409    -0.38690
O907        O  0.76144822  0.55619862  0.42259462    -0.39390
O908        O  0.73492917  0.54788590  0.39022071    -0.39460
C909        C  0.72124977  0.51436395  0.11622184    -0.11740
C910        C  0.70054845  0.49957473  0.12683533     0.05270
C911        C  0.68462866  0.48454040  0.10972587    -0.07020
C912        C  0.68832294  0.48664887  0.08254597    -0.07770
C913        C  0.70842059  0.50212280  0.07186766    -0.02320
C914        C  0.72576840  0.51527348  0.08902892     0.04500
N915        N  0.74734149  0.53042455  0.07932910     0.67000
H916        H  0.73370781  0.52578731  0.12910136     0.15900
H917        H  0.67563058  0.47562244  0.06953470     0.15610
N918        N  0.66499177  0.46677839  0.11953057     0.74710
O919        O  0.75058064  0.55366182  0.08724623    -0.38740
O920        O  0.76597523  0.51899240  0.06790297    -0.38690
O921        O  0.64433974  0.46273120  0.10653359    -0.39390
O922        O  0.66936112  0.45307730  0.13974785    -0.39460
C923        C  0.75019916  0.52286911  0.21738369    -0.11740
C924        C  0.72991340  0.50457185  0.22065467     0.05270
C925        C  0.73011588  0.48783981  0.24281553    -0.07020
C926        C  0.75031714  0.49021126  0.26135467    -0.07770
C927        C  0.77044904  0.50881522  0.25834245    -0.02320
C928        C  0.77017755  0.52550168  0.23609906     0.04500
N929        N  0.78893476  0.54626635  0.23303089     0.67000
H930        H  0.74980967  0.53607757  0.20067667     0.15900
H931        H  0.75067345  0.47692063  0.27798466     0.15610
N932        N  0.71065734  0.46775352  0.24628587     0.74710
O933        O  0.79775366  0.55180984  0.21053258    -0.38740
O934        O  0.79361948  0.56156394  0.25194299    -0.38690
O935        O  0.70355289  0.45386119  0.22704142    -0.39390
O936        O  0.70298700  0.46165064  0.26906581    -0.39460
C937        C  0.59436273  0.50041954  0.22032326    -0.11740
C938        C  0.57960113  0.51714533  0.20422204     0.05270
C939        C  0.59257222  0.53344631  0.18584457    -0.07020
C940        C  0.61967771  0.53117926  0.18280257    -0.07770
C941        C  0.63425831  0.51280347  0.19723383    -0.02320
C942        C  0.62143619  0.49756981  0.21665028     0.04500
N943        N  0.63491272  0.47752993  0.23107809     0.67000
H944        H  0.58447191  0.48785201  0.23434437     0.15900
H945        H  0.62950209  0.54363071  0.16862183     0.15610
N946        N  0.57864077  0.55234175  0.17015162     0.74710
O947        O  0.62983109  0.47389011  0.25507727    -0.38740
O948        O  0.64835351  0.46071429  0.21899313    -0.38690
O949        O  0.56006665  0.56529726  0.17992382    -0.39390
O950        O  0.58668714  0.55823829  0.14744568    -0.39460
C951        C  0.59407470  0.23605302  0.48303329    -0.11740
C952        C  0.57896024  0.21493356  0.49244771     0.05270
C953        C  0.59192559  0.19224116  0.50154817    -0.07020
C954        C  0.61913371  0.19118730  0.50112341    -0.07770
C955        C  0.63432120  0.21135085  0.48989312    -0.02320
C956        C  0.62147054  0.23428962  0.48097428     0.04500
N957        N  0.63544805  0.25518353  0.46831889     0.67000
H958        H  0.58442615  0.25350615  0.47575215     0.15900
H959        H  0.62841751  0.17379766  0.50902901     0.15610
N960        N  0.57793295  0.16970090  0.51080780     0.74710
O961        O  0.65056400  0.25020503  0.44942272    -0.38740
O962        O  0.62959983  0.27873841  0.47311101    -0.38690
O963        O  0.56890090  0.15352522  0.49435528    -0.39390
O964        O  0.58019268  0.16280520  0.53452229    -0.39460
C965        C  0.90554855  0.52347576  0.26084161    -0.11740
C966        C  0.92111495  0.50886848  0.27826308     0.05270
C967        C  0.90883335  0.49423269  0.29829252    -0.07020
C968        C  0.88173097  0.49493517  0.30097154    -0.07770
C969        C  0.86611210  0.51095539  0.28484508    -0.02320
C970        C  0.87827620  0.52521481  0.26424849     0.04500
N971        N  0.86377857  0.54291288  0.24789173     0.67000
H972        H  0.91482070  0.53497953  0.24553413     0.15900
H973        H  0.87287619  0.48312627  0.31629893     0.15610
N974        N  0.92358947  0.47847973  0.31619654     0.74710
O975        O  0.84891607  0.55968582  0.25821600    -0.38740
O976        O  0.86900190  0.54470586  0.22371744    -0.38690
O977        O  0.92991710  0.48768793  0.33831785    -0.39390
O978        O  0.92614591  0.45425194  0.31191120    -0.39460
C979        C  0.27707990  0.51886016  0.11567585    -0.11740
C980        C  0.29436522  0.50022622  0.12621444     0.05270
C981        C  0.30699204  0.48238459  0.10922993    -0.07020
C982        C  0.30387468  0.48528205  0.08203712    -0.07770
C983        C  0.28778912  0.50484650  0.07139656    -0.02320
C984        C  0.27366448  0.52151867  0.08838535     0.04500
N985        N  0.25733141  0.54226033  0.07849605     0.67000
H986        H  0.26759075  0.53264902  0.12870944     0.15900
H987        H  0.31395012  0.47197188  0.06893774     0.15610
N988        N  0.32286270  0.46129199  0.11924135     0.74710
O989        O  0.23750446  0.54939082  0.09135108    -0.38740
O990        O  0.26437607  0.55570966  0.05887760    -0.38690
O991        O  0.31706063  0.45013180  0.14063148    -0.39390
O992        O  0.34113520  0.45197617  0.10549709    -0.39460
C993        C  0.37531214  0.49606551  0.21336780    -0.11740
C994        C  0.36409857  0.51193405  0.19376097     0.05270
C995        C  0.38042292  0.52866403  0.17876028    -0.07020
C996        C  0.40753089  0.52727214  0.18210197    -0.07770
C997        C  0.41886311  0.51065505  0.20091002    -0.02320
C998        C  0.40252825  0.49520423  0.21717814     0.04500
N999        N  0.41307325  0.47742042  0.23638986     0.67000
H1000       H  0.36293346  0.48307082  0.22476055     0.15900
H1001       H  0.41996965  0.53980612  0.17025195     0.15610
N1002       N  0.36984826  0.54745673  0.16048280     0.74710
O1003       O  0.40093364  0.47331489  0.25759116    -0.38740
O1004       O  0.43243283  0.46317961  0.23083366    -0.38690
O1005       O  0.34910620  0.55967525  0.16585271    -0.39390
O1006       O  0.38261710  0.55393791  0.14026070    -0.39460
C1007       C  0.12619792  0.52643558  0.26422548    -0.11740
C1008       C  0.13639356  0.50700638  0.28086847     0.05270
C1009       C  0.11957283  0.48747393  0.29092995    -0.07020
C1010       C  0.09266447  0.49000657  0.28731418    -0.07770
C1011       C  0.08206758  0.50983420  0.27148235    -0.02320
C1012       C  0.09920566  0.52770238  0.25862720     0.04500
N1013       N  0.08990374  0.54786215  0.24112989     0.67000
H1014       H  0.13933584  0.54092647  0.25591912     0.15900
H1015       H  0.07974988  0.47607272  0.29679720     0.15610
N1016       N  0.12958911  0.46459410  0.30406840     0.74710
O1017       O  0.10253632  0.56905710  0.23880850    -0.38740
O1018       O  0.07188280  0.54306915  0.22489668    -0.38690
O1019       O  0.15020526  0.45382777  0.29584052    -0.39390
O1020       O  0.11586153  0.45272383  0.32094469    -0.39460
C1021       C  0.22485837  0.51473986  0.36410269    -0.11740
C1022       C  0.20171266  0.50347833  0.35417967     0.05270
C1023       C  0.18392515  0.49223541  0.37228363    -0.07020
C1024       C  0.18772828  0.49583289  0.39922589    -0.07770
C1025       C  0.21026216  0.50806620  0.40919694    -0.02320
C1026       C  0.22986937  0.51615980  0.39124363     0.04500
N1027       N  0.25487302  0.52573939  0.39973262     0.67000
H1028       H  0.23907594  0.52316958  0.35080765     0.15900
H1029       H  0.17344570  0.48760542  0.41263594     0.15610
N1030       N  0.16312764  0.47532130  0.36385353     0.74710
O1031       O  0.27527362  0.51888060  0.38766087    -0.38740
O1032       O  0.25638858  0.54396868  0.41632421    -0.38690
O1033       O  0.16811180  0.45645478  0.34867063    -0.39390
O1034       O  0.14106479  0.47636533  0.37487787    -0.39460
C1035       C  0.24202508  0.48233755  0.25239524    -0.11740
C1036       C  0.23175890  0.50647969  0.26035663     0.05270
C1037       C  0.24113060  0.53003585  0.24904871    -0.07020
C1038       C  0.26033626  0.52857110  0.22948094    -0.07770
C1039       C  0.27046121  0.50442184  0.22127413    -0.02320
C1040       C  0.26139302  0.48074518  0.23288790     0.04500
N1041       N  0.27121724  0.45518165  0.22542799     0.67000
H1042       H  0.23445395  0.46457926  0.26133571     0.15900
H1043       H  0.26770361  0.54645822  0.22060352     0.15610
N1044       N  0.23157436  0.55539923  0.25707925     0.74710
O1045       O  0.26352449  0.43485859  0.23739709    -0.38740
O1046       O  0.28736459  0.45243897  0.20692561    -0.38690
O1047       O  0.22348804  0.55915095  0.28018877    -0.39390
O1048       O  0.23342518  0.57483877  0.24177140    -0.39460
C1049       C  0.90701703  0.20200818  0.00800467    -0.11740
C1050       C  0.91841181  0.22039832  0.99098307     0.05270
C1051       C  0.90213504  0.23663852  0.97545448    -0.07020
C1052       C  0.87488251  0.23284849  0.97633385    -0.07770
C1053       C  0.86370629  0.21326000  0.99224113    -0.02320
C1054       C  0.87994557  0.19865062  0.00935266     0.04500
N1055       N  0.86929028  0.18046747  0.02822863     0.67000
H1056       H  0.91941596  0.19018020  0.02055355     0.15900
H1057       H  0.86248820  0.24408297  0.96324517     0.15610
N1058       N  0.91274185  0.25567948  0.95750217     0.74710
O1059       O  0.88192735  0.16020882  0.03468753    -0.38740
O1060       O  0.84856745  0.18591905  0.04047696    -0.38690
O1061       O  0.93191110  0.24992998  0.94304914    -0.39390
O1062       O  0.90076910  0.27693125  0.95344953    -0.39460
C1063       C  0.87677646  0.99932201  0.21392862    -0.11740
C1064       C  0.86610014  0.01899894  0.19789974     0.05270
C1065       C  0.88275271  0.03812923  0.18670589    -0.07020
C1066       C  0.90983110  0.03554567  0.18955532    -0.07770
C1067       C  0.92068120  0.01514478  0.20441978    -0.02320
C1068       C  0.90398713  0.99711656  0.21744725     0.04500
N1069       N  0.91408086  0.97574351  0.23293778     0.67000
H1070       H  0.86393053  0.98469184  0.22246174     0.15900
H1071       H  0.92264666  0.04986419  0.18044111     0.15610
N1072       N  0.87241959  0.06050071  0.17295750     0.74710
O1073       O  0.90079075  0.96653910  0.25171735    -0.38740
O1074       O  0.93476334  0.96410044  0.22626860    -0.38690
O1075       O  0.85190959  0.07151414  0.18110980    -0.39390
O1076       O  0.88556568  0.07147797  0.15504310    -0.39460
C1077       C  0.02105297  0.38944690  0.28301800    -0.11740
C1078       C  0.99733874  0.37631415  0.27876162     0.05270
C1079       C  0.97578853  0.39015767  0.26805345    -0.07020
C1080       C  0.97844311  0.41731065  0.26330737    -0.07770
C1081       C  0.00182069  0.43057924  0.26898465    -0.02320
C1082       C  0.02365957  0.41631002  0.27788053     0.04500
N1083       N  0.04861958  0.42880734  0.28130171     0.67000
H1084       H  0.03766068  0.37860107  0.29052682     0.15900
H1085       H  0.96171043  0.42850519  0.25667995     0.15610
N1086       N  0.95102392  0.37756085  0.26284266     0.74710
O1087       O  0.06441840  0.42057120  0.29849283    -0.38740
O1088       O  0.05637836  0.44550101  0.26468905    -0.38690
O1089       O  0.94410048  0.35721938  0.27521424    -0.39390
O1090       O  0.93514053  0.38773764  0.24681310    -0.39460
C1091       C  0.01576151  0.23424071  0.08399784    -0.11740
C1092       C  0.99789356  0.21936422  0.06924465     0.05270
C1093       C  0.97973356  0.20322416  0.08245432    -0.07020
C1094       C  0.98056667  0.20122002  0.10979327    -0.07770
C1095       C  0.99967618  0.21440407  0.12457039    -0.02320
C1096       C  0.01727484  0.23160135  0.11155084     0.04500
N1097       N  0.03760794  0.24527618  0.12551181     0.67000
H1098       H  0.02969772  0.24668225  0.07387100     0.15900
H1099       H  0.96656602  0.18854331  0.11955936     0.15610
N1100       N  0.95996534  0.18903788  0.06846219     0.74710
O1101       O  0.05052976  0.23379745  0.14325158    -0.38740
O1102       O  0.04494699  0.26768967  0.11786357    -0.38690
O1103       O  0.96563030  0.16757519  0.05757192    -0.39390
O1104       O  0.93625599  0.19470607  0.07208747    -0.39460
C1105       C  0.98875011  0.10713365  0.21700055    -0.11740
C1106       C  0.00581802  0.09150488  0.20225643     0.05270
C1107       C  0.02327853  0.10361505  0.18462367    -0.07020
C1108       C  0.02284667  0.13080075  0.18133037    -0.07770
C1109       C  0.00459590  0.14646719  0.19461493    -0.02320
C1110       C  0.98741773  0.13445612  0.21295192     0.04500
N1111       N  0.96741643  0.14911790  0.22618037     0.67000
H1112       H  0.97508820  0.09779682  0.23033263     0.15900
H1113       H  0.03647628  0.13969080  0.16765352     0.15610
N1114       N  0.04164682  0.08851829  0.16989913     0.74710
O1115       O  0.95368381  0.16544079  0.21364309    -0.38740
O1116       O  0.96088689  0.14304707  0.24932414    -0.38690
O1117       O  0.03545108  0.08006219  0.14744454    -0.39390
O1118       O  0.06521047  0.08768732  0.17716666    -0.39460
C1119       C  0.97735227  0.26721735  0.25230183    -0.11740
C1120       C  0.00050158  0.28038923  0.25896375     0.05270
C1121       C  0.02410561  0.27393540  0.24604796    -0.07020
C1122       C  0.02358253  0.25474452  0.22623017    -0.07770
C1123       C  0.00036065  0.24178783  0.21937017    -0.02320
C1124       C  0.97683542  0.24802869  0.23252107     0.04500
N1125       N  0.95234660  0.23556844  0.22591810     0.67000
H1126       H  0.95937253  0.27257090  0.26213341     0.15900
H1127       H  0.04151767  0.24944768  0.21629286     0.15610
N1128       N  0.04861244  0.28628159  0.25283952     0.74710
O1129       O  0.93409500  0.23462546  0.24257064    -0.38740
O1130       O  0.94784826  0.22771369  0.20283991    -0.38690
O1131       O  0.05255586  0.29510873  0.27566624    -0.39390
O1132       O  0.06736966  0.28620102  0.23674193    -0.39460
C1133       C  0.18384657  0.99646144  0.11188872    -0.11740
C1134       C  0.20250418  0.00983649  0.12717239     0.05270
C1135       C  0.22463300  0.02080191  0.11442349    -0.07020
C1136       C  0.22700055  0.01860934  0.08692511    -0.07770
C1137       C  0.20716281  0.00699170  0.07175039    -0.02320
C1138       C  0.18547908  0.99568534  0.08461392     0.04500
N1139       N  0.16459816  0.98360233  0.07031399     0.67000
H1140       H  0.16725383  0.98697288  0.12113111     0.15900
H1141       H  0.24357857  0.02761383  0.07720005     0.15610
N1142       N  0.24388104  0.03565861  0.12855647     0.74710
O1143       O  0.16300541  0.95891443  0.06949846    -0.38740
O1144       O  0.14511994  0.99720675  0.06359984    -0.38690
O1145       O  0.26775136  0.03357759  0.12270256    -0.39390
O1146       O  0.23683349  0.05375206  0.14385273    -0.39460
C1147       C  0.12080423  0.99427874  0.18031612    -0.11740
C1148       C  0.13600742  0.01024946  0.19687147     0.05270
C1149       C  0.12370838  0.02339748  0.21799304    -0.07020
C1150       C  0.09644937  0.02090731  0.22118581    -0.07770
C1151       C  0.08122280  0.00631207  0.20340181    -0.02320
C1152       C  0.09375376  0.99220314  0.18317042     0.04500
N1153       N  0.07945337  0.97550549  0.16546415     0.67000
H1154       H  0.13016508  0.98316337  0.16483738     0.15900
H1155       H  0.08685737  0.03187003  0.23661539     0.15610
N1156       N  0.13802965  0.04041643  0.23535101     0.74710
O1157       O  0.08612941  0.97396653  0.14163900    -0.38740
O1158       O  0.06225393  0.95996320  0.17415533    -0.38690
O1159       O  0.15528284  0.05576057  0.22641960    -0.39390
O1160       O  0.13128612  0.04245961  0.25911350    -0.39460
C1161       C  0.22977729  0.98515878  0.24131718    -0.11740
C1162       C  0.23121041  0.00493518  0.22211522     0.05270
C1163       C  0.25273539  0.02238060  0.22219727    -0.07020
C1164       C  0.27241347  0.01935430  0.24107554    -0.07770
C1165       C  0.27091862  0.99982724  0.26048650    -0.02320
C1166       C  0.24943757  0.98222126  0.26043784     0.04500
N1167       N  0.24761496  0.96092623  0.27896812     0.67000
H1168       H  0.21353088  0.97149629  0.24098057     0.15900
H1169       H  0.28843640  0.03329405  0.24144078     0.15610
N1170       N  0.25417132  0.04420297  0.20434643     0.74710
O1171       O  0.22552289  0.95254296  0.28621429    -0.38740
O1172       O  0.26783856  0.94864499  0.28602924    -0.38690
O1173       O  0.23443677  0.05857606  0.20072709    -0.39390
O1174       O  0.27596284  0.05135452  0.19514247    -0.39460
C1175       C  0.31074286  0.38890005  0.97766781    -0.11740
C1176       C  0.29454592  0.37442771  0.99463365     0.05270
C1177       C  0.27338637  0.38717337  0.00709140    -0.07020
C1178       C  0.26988937  0.41427952  0.00321699    -0.07770
C1179       C  0.28738356  0.42891371  0.98776825    -0.02320
C1180       C  0.30745391  0.41584756  0.97400423     0.04500
N1181       N  0.32451380  0.42952697  0.95612334     0.67000
H1182       H  0.32617905  0.37902611  0.96702506     0.15900
H1183       H  0.25457708  0.42430737  0.01387844     0.15610
N1184       N  0.25643088  0.37351893  0.02497418     0.74710
O1185       O  0.34798987  0.42241025  0.95357306    -0.38740
O1186       O  0.31547358  0.44666987  0.94068120    -0.38690
O1187       O  0.26585523  0.35827854  0.04207475    -0.39390
O1188       O  0.23248966  0.37932495  0.02605244    -0.39460
C1189       C  0.19057263  0.13003216  0.01304023    -0.11740
C1190       C  0.20565889  0.14553063  0.99590931     0.05270
C1191       C  0.22524091  0.13319341  0.98062549    -0.07020
C1192       C  0.22821004  0.10579298  0.98194736    -0.07770
C1193       C  0.21122383  0.09036725  0.99712592    -0.02320
C1194       C  0.19269798  0.10274767  0.01342033     0.04500
N1195       N  0.17551313  0.08790191  0.03010185     0.67000
H1196       H  0.17633307  0.13916556  0.02580776     0.15900
H1197       H  0.24234245  0.09633604  0.96929522     0.15610
N1198       N  0.24061668  0.14758989  0.96198263     0.74710
O1199       O  0.18454949  0.07049089  0.04523068    -0.38740
O1200       O  0.15150513  0.09345006  0.03111437    -0.38690
O1201       O  0.26483034  0.14329432  0.96019679    -0.39390
O1202       O  0.22946247  0.16096270  0.94437932    -0.39460
C1203       C  0.11968848  0.19304243  0.97261815    -0.11740
C1204       C  0.13496931  0.21154794  0.98608404     0.05270
C1205       C  0.12217242  0.23261514  0.99885010    -0.07020
C1206       C  0.09469416  0.23439496  0.99750022    -0.07770
C1207       C  0.07946832  0.21441786  0.98598909    -0.02320
C1208       C  0.09247722  0.19299933  0.97402023     0.04500
N1209       N  0.07898548  0.17031091  0.96417246     0.67000
H1210       H  0.12907115  0.17714391  0.96218763     0.15900
H1211       H  0.08502866  0.25057253  0.00722529     0.15610
N1212       N  0.13625171  0.25123778  0.01465930     0.74710
O1213       O  0.08608546  0.16056482  0.94253327    -0.38740
O1214       O  0.06674285  0.15578683  0.98008236    -0.38690
O1215       O  0.12913198  0.27492563  0.01518851    -0.39390
O1216       O  0.15289307  0.24339496  0.03121234    -0.39460
C1217       C  0.22773806  0.26034224  0.00709502    -0.11740
C1218       C  0.22921303  0.24121356  0.98743576     0.05270
C1219       C  0.25064833  0.24130354  0.96991245    -0.07020
C1220       C  0.27037207  0.26029674  0.97290504    -0.07770
C1221       C  0.26898862  0.27931957  0.99275224    -0.02320
C1222       C  0.24752861  0.27909922  0.01027482     0.04500
N1223       N  0.24623408  0.29678189  0.03220171     0.67000
H1224       H  0.21167353  0.25981273  0.02094675     0.15900
H1225       H  0.28650471  0.26076787  0.95914739     0.15610
N1226       N  0.25218681  0.22296557  0.94854138     0.74710
O1227       O  0.22445318  0.30556396  0.03973202    -0.38740
O1228       O  0.26623031  0.30084381  0.04618432    -0.38690
O1229       O  0.23191527  0.21691921  0.93572874    -0.39390
O1230       O  0.27414576  0.21519342  0.94043503    -0.39460
C1231       C  0.30821927  0.98699919  0.40037686    -0.11740
C1232       C  0.28996205  0.00441085  0.41103637     0.05270
C1233       C  0.27406298  0.01947709  0.39395288    -0.07020
C1234       C  0.27761337  0.01731183  0.36662498    -0.07770
C1235       C  0.29674055  0.00069335  0.35607215    -0.02320
C1236       C  0.31144200  0.98449569  0.37319737     0.04500
N1237       N  0.32946999  0.96525226  0.36333354     0.67000
H1238       H  0.31979706  0.97483936  0.41340801     0.15900
H1239       H  0.26648495  0.02987739  0.35359831     0.15610
N1240       N  0.25555314  0.03820360  0.40381074     0.74710
O1241       O  0.34988111  0.95971284  0.37613113    -0.38740
O1242       O  0.32384279  0.95192559  0.34320555    -0.38690
O1243       O  0.26172519  0.05334496  0.42243077    -0.39390
O1244       O  0.23446532  0.04219783  0.39155721    -0.39460
C1245       C  0.90340457  0.28141513  0.48119141    -0.11740
C1246       C  0.91882236  0.30185745  0.49155201     0.05270
C1247       C  0.90616746  0.32367378  0.50284360    -0.07020
C1248       C  0.87903838  0.32481228  0.50328045    -0.07770
C1249       C  0.86344409  0.30565605  0.49103480    -0.02320
C1250       C  0.87585600  0.28329783  0.48017257     0.04500
N1251       N  0.86127966  0.26312572  0.46694122     0.67000
H1252       H  0.91289245  0.26461206  0.47240869     0.15900
H1253       H  0.87007728  0.34159238  0.51268461     0.15610
N1254       N  0.92045998  0.34531933  0.51358436     0.74710
O1255       O  0.84344704  0.26910365  0.45087218    -0.38740
O1256       O  0.86844095  0.23949964  0.46865008    -0.38690
O1257       O  0.92684168  0.36414744  0.49875111    -0.39390
O1258       O  0.92120093  0.34844347  0.53815876    -0.39460
C1259       C  0.98497854  0.28864823  0.39241780    -0.11740
C1260       C  0.00027053  0.30573202  0.40767410     0.05270
C1261       C  0.01499609  0.32558475  0.39507262    -0.07020
C1262       C  0.01322262  0.32849045  0.36777383    -0.07770
C1263       C  0.99705390  0.31222971  0.35244674    -0.02320
C1264       C  0.98276980  0.29189793  0.36502726     0.04500
N1265       N  0.96491204  0.27537264  0.35078010     0.67000
H1266       H  0.97346553  0.27360492  0.40208173     0.15900
H1267       H  0.02506936  0.34340421  0.35832426     0.15610
N1268       N  0.03240995  0.34247650  0.40948610     0.74710
O1269       O  0.96205069  0.25163832  0.35734273    -0.38740
O1270       O  0.94959519  0.28513659  0.33396270    -0.38690
O1271       O  0.04741263  0.33306835  0.42679147    -0.39390
O1272       O  0.03524657  0.36614000  0.40265556    -0.39460
C1273       C  0.31396720  0.13103504  0.47799573    -0.11740
C1274       C  0.29533253  0.14620316  0.49140827     0.05270
C1275       C  0.27250496  0.13349821  0.50094636    -0.07020
C1276       C  0.26958865  0.10619492  0.49760799    -0.07770
C1277       C  0.28954287  0.09100923  0.48638839    -0.02320
C1278       C  0.31185041  0.10385546  0.47632184     0.04500
N1279       N  0.33312293  0.08961425  0.46508431     0.67000
H1280       H  0.33102905  0.14020749  0.46933312     0.15900
H1281       H  0.25250656  0.09654003  0.50569008     0.15610
N1282       N  0.25299809  0.14736050  0.51555618     0.74710
O1283       O  0.33591629  0.08925106  0.44046602    -0.38740
O1284       O  0.35189931  0.08265728  0.47959614    -0.38690
O1285       O  0.22908943  0.14253162  0.51169710    -0.39390
O1286       O  0.25957104  0.16129256  0.53495224    -0.39460
C1287       C  0.37731984  0.19957995  0.47612713    -0.11740
C1288       C  0.36338972  0.21461874  0.49447381     0.05270
C1289       C  0.37682907  0.23411511  0.50904851    -0.07020
C1290       C  0.40400398  0.23714973  0.50549817    -0.07770
C1291       C  0.41797979  0.22076654  0.48837752    -0.02320
C1292       C  0.40428968  0.20233011  0.47288862     0.04500
N1293       N  0.41737433  0.18639462  0.45366504     0.67000
H1294       H  0.36698547  0.18543992  0.46406392     0.15900
H1295       H  0.41458412  0.25112308  0.51752529     0.15610
N1296       N  0.36379557  0.24982127  0.52846694     0.74710
O1297       O  0.40935217  0.16342690  0.44894689    -0.38740
O1298       O  0.43503691  0.19614493  0.43932638    -0.38690
O1299       O  0.34654857  0.23983715  0.54314530    -0.39390
O1300       O  0.37163482  0.27286680  0.53309516    -0.39460
C1301       C  0.12043703  0.32755308  0.49724481    -0.11740
C1302       C  0.13532468  0.30901543  0.48340913     0.05270
C1303       C  0.12232504  0.28691607  0.47253164    -0.07020
C1304       C  0.09497812  0.28453677  0.47532909    -0.07770
C1305       C  0.08013109  0.30434264  0.48736502    -0.02320
C1306       C  0.09330817  0.32608758  0.49841717     0.04500
N1307       N  0.07959586  0.34731173  0.51053634     0.67000
H1308       H  0.12987759  0.34407118  0.50672954     0.15900
H1309       H  0.08508648  0.26786354  0.46662347     0.15610
N1310       N  0.13603902  0.26751003  0.45752237     0.74710
O1311       O  0.08278331  0.35159930  0.53474114    -0.38740
O1312       O  0.07032095  0.36528643  0.49623536    -0.38690
O1313       O  0.12960769  0.24363960  0.45929445    -0.39390
O1314       O  0.15210879  0.27442445  0.44001366    -0.39460
C1315       C  0.18795284  0.39054516  0.50110663    -0.11740
C1316       C  0.20455992  0.37607902  0.48463178     0.05270
C1317       C  0.22590319  0.38904059  0.47250564    -0.07020
C1318       C  0.22928767  0.41620755  0.47637848    -0.07770
C1319       C  0.21147066  0.43077154  0.49140620    -0.02320
C1320       C  0.19102588  0.41754982  0.50460537     0.04500
N1321       N  0.17336766  0.43109506  0.52184301     0.67000
H1322       H  0.17233361  0.38063734  0.51155178     0.15900
H1323       H  0.24488293  0.42632020  0.46611000     0.15610
N1324       N  0.24324431  0.37554363  0.45500165     0.74710
O1325       O  0.14964534  0.42430169  0.52300942    -0.38740
O1326       O  0.18198191  0.44766586  0.53812876    -0.38690
O1327       O  0.23420031  0.36023026  0.43776406    -0.39390
O1328       O  0.26718035  0.38157966  0.45435952    -0.39460
C1329       C  0.27068727  0.26075509  0.47194302    -0.11740
C1330       C  0.26897139  0.24178443  0.49185393     0.05270
C1331       C  0.24756513  0.24233368  0.50943425    -0.07020
C1332       C  0.22823080  0.26158512  0.50630975    -0.07770
C1333       C  0.22995139  0.28057696  0.48638598    -0.02320
C1334       C  0.25131758  0.27991446  0.46875641     0.04500
N1335       N  0.25303927  0.29768183  0.44685838     0.67000
H1336       H  0.28676876  0.26001947  0.45813579     0.15900
H1337       H  0.21217826  0.26234709  0.52014393     0.15610
N1338       N  0.24571105  0.22432231  0.53114108     0.74710
O1339       O  0.27504047  0.30596828  0.43923879    -0.38740
O1340       O  0.23309315  0.30240732  0.43303597    -0.38690
O1341       O  0.26575285  0.21867294  0.54446550    -0.39390
O1342       O  0.22361630  0.21657576  0.53904783    -0.39460
C1343       C  0.61955155  0.31673764  0.97156368    -0.11740
C1344       C  0.63443151  0.30224443  0.98961610     0.05270
C1345       C  0.62183807  0.28304075  0.00536600    -0.07020
C1346       C  0.59463375  0.27956325  0.00314098    -0.07770
C1347       C  0.57968865  0.29544715  0.98637933    -0.02320
C1348       C  0.59243341  0.31369796  0.96975832     0.04500
N1349       N  0.57823593  0.32921435  0.95090995     0.67000
H1350       H  0.62919475  0.33075340  0.95878231     0.15900
H1351       H  0.58483874  0.26578572  0.01606074     0.15610
N1352       N  0.63580099  0.26828377  0.02492722     0.74710
O1353       O  0.58597352  0.35204766  0.94511835    -0.38740
O1354       O  0.55980089  0.31915789  0.93783024    -0.38690
O1355       O  0.65181779  0.27960592  0.04004147    -0.39390
O1356       O  0.62953899  0.24474516  0.02952684    -0.39460
C1357       C  0.40354283  0.28189379  0.00370801    -0.11740
C1358       C  0.41891792  0.30178505  0.99226370     0.05270
C1359       C  0.40640638  0.32473918  0.98290122    -0.07020
C1360       C  0.37931059  0.32674867  0.98452247    -0.07770
C1361       C  0.36388326  0.30772721  0.99722963    -0.02320
C1362       C  0.37635886  0.28495768  0.00721614     0.04500
N1363       N  0.36236763  0.26568482  0.02234047     0.67000
H1364       H  0.41301600  0.26463569  0.01166481     0.15900
H1365       H  0.37027345  0.34380024  0.97566673     0.15610
N1366       N  0.42060666  0.34667513  0.97222118     0.74710
O1367       O  0.36857074  0.24177619  0.02086870    -0.38740
O1368       O  0.34645123  0.27280335  0.03985132    -0.38690
O1369       O  0.43645331  0.34349218  0.95356507    -0.39390
O1370       O  0.41452780  0.36972208  0.97885354    -0.39460
C1371       C  0.61991236  0.02984681  0.29643735    -0.11740
C1372       C  0.63480949  0.01151320  0.28240965     0.05270
C1373       C  0.62246751  0.99623154  0.26269305    -0.07020
C1374       C  0.59535513  0.99904250  0.25855412    -0.07770
C1375       C  0.58036964  0.01604895  0.27411905    -0.02320
C1376       C  0.59300719  0.03232418  0.29263137     0.04500
N1377       N  0.57887373  0.05150240  0.30767536     0.67000
H1378       H  0.62939709  0.04247155  0.31064713     0.15900
H1379       H  0.58559010  0.98645079  0.24447993     0.15610
N1380       N  0.63650484  0.97679644  0.24792505     0.74710
O1381       O  0.58607035  0.05712656  0.33073400    -0.38740
O1382       O  0.56099677  0.06487073  0.29706482    -0.38690
O1383       O  0.65358707  0.96271754  0.25892486    -0.39390
O1384       O  0.62966403  0.97147210  0.22468885    -0.39460
C1385       C  0.38176812  0.98801434  0.30310173    -0.11740
C1386       C  0.36546773  0.00373644  0.28744803     0.05270
C1387       C  0.37668369  0.01844281  0.26661665    -0.07020
C1388       C  0.40387437  0.01737087  0.26255036    -0.07770
C1389       C  0.42014539  0.00278874  0.27929852    -0.02320
C1390       C  0.40880397  0.98741628  0.29944168     0.04500
N1391       N  0.42430500  0.97080932  0.31615489     0.67000
H1392       H  0.37331868  0.97580764  0.31835204     0.15900
H1393       H  0.41256620  0.02940188  0.24730096     0.15610
N1394       N  0.36128349  0.03567486  0.25048016     0.74710
O1395       O  0.41839081  0.96806534  0.34008565    -0.38740
O1396       O  0.44185387  0.95643416  0.30644837    -0.38690
O1397       O  0.34433601  0.05039562  0.26073311    -0.39390
O1398       O  0.36688933  0.03869637  0.22651072    -0.39460
C1399       C  0.52308169  0.29285220  0.08594731    -0.11740
C1400       C  0.50009933  0.29836646  0.07197383     0.05270
C1401       C  0.47772447  0.30709424  0.08558001    -0.07020
C1402       C  0.47935399  0.31136886  0.11273658    -0.07770
C1403       C  0.50254017  0.30674978  0.12668189    -0.02320
C1404       C  0.52477073  0.29710431  0.11325378     0.04500
N1405       N  0.54930663  0.29260199  0.12649280     0.67000
H1406       H  0.54018770  0.28642633  0.07523635     0.15900
H1407       H  0.46235191  0.31842621  0.12322573     0.15610
N1408       N  0.45329278  0.31155541  0.07224369     0.74710
O1409       O  0.56581294  0.27701513  0.11679727    -0.38740
O1410       O  0.55569420  0.30578883  0.14647747    -0.38690
O1411       O  0.44637831  0.29697583  0.05345145    -0.39390
O1412       O  0.43712381  0.32790255  0.08123078    -0.39460
C1413       C  0.51613184  0.38778775  0.21176082    -0.11740
C1414       C  0.49789183  0.37628904  0.19461282     0.05270
C1415       C  0.47965598  0.39251848  0.18142132    -0.07020
C1416       C  0.48157812  0.41982696  0.18406155    -0.07770
C1417       C  0.50041731  0.43139860  0.20038026    -0.02320
C1418       C  0.51770109  0.41520256  0.21482559     0.04500
N1419       N  0.53783185  0.42608844  0.23134520     0.67000
H1420       H  0.53024773  0.37541326  0.22165289     0.15900
H1421       H  0.46777825  0.43224582  0.17375685     0.15610
N1422       N  0.45887262  0.38161658  0.16570781     0.74710
O1423       O  0.54590816  0.41340652  0.25106532    -0.38740
O1424       O  0.54978947  0.44672039  0.22461333    -0.38690
O1425       O  0.44769358  0.36058954  0.17259684    -0.39390
O1426       O  0.44975165  0.39436153  0.14649505    -0.39460
C1427       C  0.47671313  0.13074244  0.29479902    -0.11740
C1428       C  0.49806930  0.14534818  0.28542811     0.05270
C1429       C  0.51776835  0.13251195  0.27083360    -0.07020
C1430       C  0.51556237  0.10544139  0.26605348    -0.07770
C1431       C  0.49484308  0.09072528  0.27650774    -0.02320
C1432       C  0.47479161  0.10357082  0.29055797     0.04500
N1433       N  0.45238191  0.08947080  0.30040158     0.67000
H1434       H  0.46144520  0.14067856  0.30561146     0.15900
H1435       H  0.53118093  0.09541786  0.25583170     0.15610
N1436       N  0.54108512  0.14603328  0.26270807     0.74710
O1437       O  0.43978231  0.09816958  0.31982597    -0.38740
O1438       O  0.44344708  0.06987384  0.28815860    -0.38690
O1439       O  0.55278639  0.16110828  0.27849848    -0.39390
O1440       O  0.55229163  0.13971329  0.24156990    -0.39460
C1441       C  0.48160866  0.22805687  0.39515155    -0.11740
C1442       C  0.50197472  0.21712072  0.40996773     0.05270
C1443       C  0.52317053  0.20515011  0.39688743    -0.07020
C1444       C  0.52322484  0.20415848  0.36935554    -0.07770
C1445       C  0.50236465  0.21410121  0.35446974    -0.02320
C1446       C  0.48126411  0.22643710  0.36754382     0.04500
N1447       N  0.45869115  0.23588919  0.35357717     0.67000
H1448       H  0.46542057  0.23725639  0.40525430     0.15900
H1449       H  0.53920801  0.19440758  0.35943195     0.15610
N1450       N  0.54488994  0.19414220  0.41100802     0.74710
O1451       O  0.43633385  0.23412666  0.36390911    -0.38740
O1452       O  0.46122851  0.24904998  0.33272630    -0.37250
O1453       O  0.54110361  0.17711698  0.42863113    -0.39390
O1454       O  0.56785380  0.19787275  0.40274552    -0.39460
C1455       C  0.48033873  0.25237548  0.25331928    -0.11740
C1456       C  0.50425126  0.24040154  0.25935358     0.05270
C1457       C  0.52729702  0.24901841  0.24656516    -0.07020
C1458       C  0.52550615  0.26941147  0.22798995    -0.07770
C1459       C  0.50158220  0.28132932  0.22183300    -0.02320
C1460       C  0.47841928  0.27272050  0.23463634     0.04500
N1461       N  0.45292297  0.28361064  0.22886927     0.67000
H1462       H  0.46295681  0.24566212  0.26346565     0.15900
H1463       H  0.54297191  0.27598221  0.21788833     0.15610
N1464       N  0.55255171  0.23778522  0.25218883     0.74710
O1465       O  0.43257037  0.27274919  0.23780954    -0.38740
O1466       O  0.45031565  0.30423677  0.21539897    -0.38690
O1467       O  0.55465308  0.21449956  0.26031529    -0.39390
O1468       O  0.57313869  0.25054918  0.24716405    -0.39460
C1469       C  0.37399924  0.78596411  0.50186000    -0.11740
C1470       C  0.36280501  0.80511528  0.48544464     0.05270
C1471       C  0.37904119  0.81893684  0.46761589    -0.07020
C1472       C  0.40614816  0.81523124  0.46870064    -0.07770
C1473       C  0.41746859  0.79704783  0.48599379    -0.02320
C1474       C  0.40107574  0.78134723  0.50192994     0.04500
N1475       N  0.41152576  0.76178042  0.51927544     0.67000
H1476       H  0.36170375  0.77506217  0.51534367     0.15900
H1477       H  0.41863712  0.82658281  0.45575661     0.15610
N1478       N  0.36839172  0.83659025  0.44827242     0.74710
O1479       O  0.40330697  0.76020935  0.54260185    -0.38740
O1480       O  0.42472598  0.74307892  0.51003248    -0.38690
O1481       O  0.38153737  0.85609860  0.44046360    -0.39390
O1482       O  0.34706988  0.83126746  0.43693602    -0.39460
C1483       C  0.31171441  0.89064281  0.51372460    -0.11740
C1484       C  0.29554735  0.87480811  0.49802753     0.05270
C1485       C  0.27457938  0.88664744  0.48417121    -0.07020
C1486       C  0.27103158  0.91397109  0.48576557    -0.07770
C1487       C  0.28842808  0.92984873  0.50001344    -0.02320
C1488       C  0.30851790  0.91786800  0.51487142     0.04500
N1489       N  0.32577576  0.93295624  0.53131546     0.67000
H1490       H  0.32713387  0.88169895  0.52524291     0.15900
H1491       H  0.25575429  0.92307490  0.47418460     0.15610
N1492       N  0.25787550  0.87177643  0.46701488     0.74710
O1493       O  0.31677637  0.95066707  0.54603815    -0.38740
O1494       O  0.34954071  0.92666992  0.53337989    -0.38690
O1495       O  0.23384399  0.87713120  0.46555807    -0.39390
O1496       O  0.26756260  0.85587802  0.45074547    -0.39460
C1497       C  0.11803026  0.69780724  0.50785666    -0.11740
C1498       C  0.13328514  0.71376251  0.49133591     0.05270
C1499       C  0.12081800  0.73365573  0.47643370    -0.07020
C1500       C  0.09352300  0.73676043  0.47851040    -0.07770
C1501       C  0.07832705  0.71969632  0.49398400    -0.02320
C1502       C  0.09088921  0.70010253  0.50905068     0.04500
N1503       N  0.07660448  0.68243187  0.52583646     0.67000
H1504       H  0.12738905  0.68320974  0.52013792     0.15900
H1505       H  0.08386709  0.75147341  0.46659650     0.15610
N1506       N  0.13500863  0.74967013  0.45801074     0.74710
O1507       O  0.08420098  0.65905346  0.52872768    -0.38740
O1508       O  0.05843512  0.69084435  0.54023309    -0.38690
O1509       O  0.15215949  0.73959561  0.44338144    -0.39390
O1510       O  0.12800429  0.77303445  0.45379453    -0.39460
C1511       C  0.19170336  0.60282126  0.50947128    -0.11740
C1512       C  0.21130824  0.59243510  0.49333259     0.05270
C1513       C  0.22847922  0.60984231  0.48021373    -0.07020
C1514       C  0.22425273  0.63701302  0.48180788    -0.07770
C1515       C  0.20347807  0.64722403  0.49652886    -0.02320
C1516       C  0.18803074  0.62991426  0.51185610     0.04500
N1517       N  0.16887000  0.63950099  0.53014748     0.67000
H1518       H  0.17935690  0.58965179  0.52071598     0.15900
H1519       H  0.23623712  0.65008988  0.47008583     0.15610
N1520       N  0.24878805  0.60040586  0.46344506     0.74710
O1521       O  0.14845395  0.62633304  0.53481624    -0.38740
O1522       O  0.17353041  0.65971685  0.54369123    -0.38690
O1523       O  0.24328744  0.58419382  0.44561816    -0.39390
O1524       O  0.27071704  0.61181000  0.46305769    -0.39460
C1525       C  0.22982780  0.75925681  0.51494081    -0.11740
C1526       C  0.22770930  0.74252364  0.49320784     0.05270
C1527       C  0.24601887  0.74452564  0.47249896    -0.07020
C1528       C  0.26620902  0.76309552  0.47431700    -0.07770
C1529       C  0.26847356  0.77981961  0.49607835    -0.02320
C1530       C  0.25023007  0.77767470  0.51688686     0.04500
N1531       N  0.25272509  0.79307635  0.54045753     0.67000
H1532       H  0.21608644  0.75714975  0.53099262     0.15900
H1533       H  0.27987673  0.76511805  0.45818938     0.15610
N1534       N  0.24410160  0.72840630  0.44933106     0.74710
O1535       O  0.23271952  0.79872053  0.55377395    -0.38740
O1536       O  0.27500817  0.79840623  0.54973133    -0.38690
O1537       O  0.22206570  0.72193591  0.44018540    -0.39390
O1538       O  0.26436265  0.72284684  0.43636974    -0.39460
C1539       C  0.97567358  0.70911450  0.36979171    -0.11740
C1540       C  0.99821310  0.71584558  0.35564083     0.05270
C1541       C  0.02034747  0.72578790  0.36924394    -0.07020
C1542       C  0.01915197  0.72835521  0.39675815    -0.07770
C1543       C  0.99697951  0.72049525  0.41087284    -0.02320
C1544       C  0.97494727  0.71086174  0.39721840     0.04500
N1545       N  0.95191536  0.70226107  0.41080860     0.67000
H1546       H  0.95892599  0.70110074  0.35946355     0.15900
H1547       H  0.03599217  0.73570388  0.40740112     0.15610
N1548       N  0.04454668  0.73181038  0.35603333     0.74710
O1549       O  0.92966503  0.70885626  0.40238812    -0.38740
O1550       O  0.95351408  0.68411050  0.42760365    -0.38690
O1551       O  0.04464208  0.74162205  0.33326907    -0.39390
O1552       O  0.06599114  0.72963805  0.36813278    -0.39460
C1553       C  0.02095777  0.63468875  0.27805195    -0.11740
C1554       C  0.99803807  0.64638994  0.28736994     0.05270
C1555       C  0.97583573  0.63063454  0.29275337    -0.07020
C1556       C  0.97755850  0.60334580  0.28931177    -0.07770
C1557       C  0.00065728  0.59160458  0.28052029    -0.02320
C1558       C  0.02272819  0.60737562  0.27495843     0.04500
N1559       N  0.04739381  0.59600526  0.26781680     0.67000
H1560       H  0.03803509  0.64682468  0.27460880     0.15900
H1561       H  0.96069893  0.59108370  0.29334657     0.15610
N1562       N  0.95156126  0.64187661  0.30159670     0.74710
O1563       O  0.06339351  0.60890562  0.25399850    -0.38740
O1564       O  0.05488578  0.57496201  0.27849496    -0.38690
O1565       O  0.94502595  0.66474605  0.29472045    -0.39390
O1566       O  0.93538004  0.62806989  0.31428819    -0.39460
C1567       C  0.97752779  0.81466531  0.08237119    -0.11740
C1568       C  0.99895076  0.80152608  0.07151308     0.05270
C1569       C  0.01836464  0.79114127  0.08822223    -0.07020
C1570       C  0.01588737  0.79421703  0.11552834    -0.07770
C1571       C  0.99484398  0.80809788  0.12638285    -0.02320
C1572       C  0.97501312  0.81782997  0.10961734     0.04500
N1573       N  0.95212091  0.83051021  0.11990945     0.67000
H1574       H  0.96246390  0.82224575  0.06945933     0.15900
H1575       H  0.03137263  0.78727046  0.12828114     0.15610
N1576       N  0.04170702  0.77966398  0.07777555     0.74710
O1577       O  0.94066331  0.84803706  0.10669320    -0.38740
O1578       O  0.94160814  0.82225564  0.14078413    -0.38690
O1579       O  0.05371893  0.79100119  0.05930734    -0.39390
O1580       O  0.05265838  0.76094262  0.08971215    -0.39460
C1581       C  0.97471413  0.91893192  0.19422805    -0.11740
C1582       C  0.99713300  0.93028763  0.20533680     0.05270
C1583       C  0.01827177  0.91403732  0.21297923    -0.07020
C1584       C  0.01633370  0.88682685  0.20874536    -0.07770
C1585       C  0.99411431  0.87562620  0.19708251    -0.02320
C1586       C  0.97273085  0.89176789  0.19032325     0.04500
N1587       N  0.94901397  0.88094357  0.17954454     0.67000
H1588       H  0.95863382  0.93145674  0.18840121     0.15900
H1589       H  0.03270425  0.87430323  0.21368125     0.15610
N1590       N  0.04238958  0.92465785  0.22314822     0.74710
O1591       O  0.93485987  0.89455935  0.16447359    -0.38740
O1592       O  0.94068165  0.85888986  0.18721344    -0.38690
O1593       O  0.04243847  0.94444084  0.23799995    -0.39390
O1594       O  0.06367099  0.91284066  0.21915853    -0.39460
C1595       C  0.98201000  0.75939453  0.21904725    -0.11740
C1596       C  0.99995443  0.78021908  0.22083206     0.05270
C1597       C  0.01736923  0.78119064  0.24245435    -0.07020
C1598       C  0.01577470  0.76176416  0.26198208    -0.07770
C1599       C  0.99765774  0.74107884  0.26030964    -0.02320
C1600       C  0.98045544  0.73995878  0.23853712     0.04500
N1601       N  0.96058575  0.72005829  0.23640894     0.67000
H1602       H  0.96824981  0.75888215  0.20285755     0.15900
H1603       H  0.02942240  0.76230134  0.27826605     0.15610
N1604       N  0.03729323  0.80107157  0.24449624     0.74710
O1605       O  0.94734607  0.71344543  0.25627024    -0.38740
O1606       O  0.95410289  0.71132018  0.21412891    -0.38690
O1607       O  0.04458134  0.80912455  0.26678672    -0.39390
O1608       O  0.04967504  0.80850967  0.22436262    -0.39460
C1609       C  0.27127391  0.60587493  0.00331312    -0.11740
C1610       C  0.28986438  0.59033204  0.99029249     0.05270
C1611       C  0.31094203  0.60274593  0.97733578    -0.07020
C1612       C  0.31345223  0.62991469  0.97842671    -0.07770
C1613       C  0.29589257  0.64554244  0.99258388    -0.02320
C1614       C  0.27422406  0.63339229  0.00503272     0.04500
N1615       N  0.25593876  0.64817616  0.02046938     0.67000
H1616       H  0.25519972  0.59640715  0.01344022     0.15900
H1617       H  0.32942243  0.63902670  0.96778592     0.15610
N1618       N  0.32964452  0.58821955  0.96227268     0.74710
O1619       O  0.23241479  0.64081038  0.02206029    -0.38740
O1620       O  0.26375597  0.66667849  0.03496985    -0.38690
O1621       O  0.32188634  0.57197457  0.94530471    -0.39390
O1622       O  0.35354136  0.59442440  0.96299007    -0.39460
C1623       C  0.12479350  0.77943324  0.99664383    -0.11740
C1624       C  0.13562132  0.80193988  0.98495801     0.05270
C1625       C  0.11888532  0.81966594  0.97171905    -0.07020
C1626       C  0.09188762  0.81659647  0.97393674    -0.07770
C1627       C  0.08073843  0.79528984  0.98735989    -0.02320
C1628       C  0.09749491  0.77551300  0.99754651     0.04500
N1629       N  0.08764305  0.75171005  0.00910009     0.67000
H1630       H  0.13754896  0.76537363  0.00613405     0.15900
H1631       H  0.07934112  0.83083417  0.96440773     0.15610
N1632       N  0.12895986  0.84063024  0.95559773     0.74710
O1633       O  0.09962337  0.73040286  0.00547903    -0.38740
O1634       O  0.06935177  0.75229728  0.02565562    -0.38690
O1635       O  0.14873174  0.83693833  0.94126699    -0.39390
O1636       O  0.11637645  0.86178104  0.95321525    -0.39460
C1637       C  0.17849764  0.88931033  0.98352476    -0.11740
C1638       C  0.19997831  0.87334813  0.99011948     0.05270
C1639       C  0.22399833  0.88609471  0.99609975    -0.07020
C1640       C  0.22569314  0.91365687  0.99481551    -0.07770
C1641       C  0.20358228  0.92922661  0.98988396    -0.02320
C1642       C  0.17945037  0.91653933  0.98515597     0.04500
N1643       N  0.15532713  0.93066714  0.98330392     0.67000
H1644       H  0.15994920  0.88073386  0.97767370     0.15900
H1645       H  0.24428502  0.92303127  0.99920105     0.15610
N1646       N  0.24633651  0.87187562  0.00517377     0.74710
O1647       O  0.14059763  0.92717524  0.96370331    -0.38740
O1648       O  0.14597782  0.94105677  0.00373166    -0.38690
O1649       O  0.26865979  0.87698252  0.99590722    -0.39390
O1650       O  0.24453266  0.85785665  0.02553793    -0.39460
C1651       C  0.23087056  0.75910102  0.96270463    -0.11740
C1652       C  0.23139048  0.77917471  0.98161257     0.05270
C1653       C  0.25209529  0.77991936  0.00004761    -0.07020
C1654       C  0.27183583  0.76107154  0.99879396    -0.07770
C1655       C  0.27109363  0.74067651  0.98038412    -0.02320
C1656       C  0.25048749  0.73978562  0.96178516     0.04500
N1657       N  0.24939355  0.71994756  0.94169890     0.67000
H1658       H  0.21519995  0.75867448  0.94837995     0.15900
H1659       H  0.28713852  0.76134642  0.01353958     0.15610
N1660       N  0.25245216  0.79833603  0.02138943     0.74710
O1661       O  0.22766739  0.71292045  0.93221232    -0.38740
O1662       O  0.27011894  0.71118606  0.93158796    -0.38690
O1663       O  0.23208244  0.80206023  0.03483347    -0.39390
O1664       O  0.27394068  0.80745609  0.02955445    -0.39460
C1665       C  0.40448318  0.73777549  0.99994413    -0.11740
C1666       C  0.41983642  0.71815951  0.98825254     0.05270
C1667       C  0.40725643  0.69621659  0.97696497    -0.07020
C1668       C  0.38019837  0.69397666  0.97802938    -0.07770
C1669       C  0.36475804  0.71270358  0.99087554    -0.02320
C1670       C  0.37707388  0.73511754  0.00187445     0.04500
N1671       N  0.36253132  0.75453347  0.01613143     0.67000
H1672       H  0.41398057  0.75454685  0.00889293     0.15900
H1673       H  0.37115146  0.67714870  0.96868129     0.15610
N1674       N  0.42161740  0.67589314  0.96415587     0.74710
O1675       O  0.34457077  0.74769845  0.03171111    -0.38740
O1676       O  0.36968508  0.77825609  0.01564971    -0.38690
O1677       O  0.42349812  0.65360267  0.97481548    -0.39390
O1678       O  0.42911380  0.67901660  0.94075433    -0.39460
C1679       C  0.51491764  0.79117563  0.36477912    -0.11740
C1680       C  0.49485895  0.80592555  0.35314254     0.05270
C1681       C  0.47479734  0.81637108  0.36905231    -0.07020
C1682       C  0.47640589  0.81341899  0.39637514    -0.07770
C1683       C  0.49701138  0.79966330  0.40814588    -0.02320
C1684       C  0.51643168  0.78803511  0.39221573     0.04500
N1685       N  0.53855710  0.77460601  0.40338853     0.67000
H1686       H  0.53039755  0.78350209  0.35251211     0.15900
H1687       H  0.46127063  0.82173387  0.40867331     0.15610
N1688       N  0.45269112  0.82978431  0.35780720     0.74710
O1689       O  0.54983728  0.75674288  0.39056506    -0.38740
O1690       O  0.54889441  0.78260730  0.42444684    -0.38690
O1691       O  0.44336450  0.82257910  0.33599575    -0.39390
O1692       O  0.44064528  0.84692448  0.37091433    -0.39460
C1693       C  0.52411440  0.88886967  0.28977913    -0.11740
C1694       C  0.50080838  0.87524598  0.28474482     0.05270
C1695       C  0.47901660  0.88881862  0.27436073    -0.07020
C1696       C  0.48124589  0.91588114  0.26947368    -0.07770
C1697       C  0.50422613  0.92965229  0.27551522    -0.02320
C1698       C  0.52621316  0.91597253  0.28521611     0.04500
N1699       N  0.55068196  0.92912904  0.29029018     0.67000
H1700       H  0.54076752  0.87819051  0.29740215     0.15900
H1701       H  0.46437255  0.92665242  0.26249144     0.15610
N1702       N  0.45426112  0.87596668  0.26998812     0.74710
O1703       O  0.56708304  0.91923655  0.30596346    -0.38740
O1704       O  0.55723454  0.94910188  0.27713631    -0.38690
O1705       O  0.44668018  0.85768714  0.28493264    -0.39390
O1706       O  0.43849563  0.88494985  0.25314769    -0.39460
C1707       C  0.52099762  0.72236725  0.11191305    -0.11740
C1708       C  0.49810217  0.71316878  0.12398751     0.05270
C1709       C  0.47614479  0.70659722  0.10838366    -0.07020
C1710       C  0.47821045  0.70822179  0.08092450    -0.07770
C1711       C  0.50131448  0.71672713  0.06882671    -0.02320
C1712       C  0.52303254  0.72407130  0.08440962     0.04500
N1713       N  0.54750393  0.73200066  0.07281849     0.67000
H1714       H  0.53785953  0.72686908  0.12400312     0.15900
H1715       H  0.46151307  0.70322011  0.06879116     0.15610
N1716       N  0.45171034  0.69855716  0.12001887     0.74710
O1717       O  0.56322346  0.74627184  0.08556781    -0.38740
O1718       O  0.55484319  0.72249106  0.05117739    -0.38690
O1719       O  0.44490067  0.70718239  0.14221432    -0.39390
O1720       O  0.43560561  0.68497918  0.10699759    -0.39460
C1721       C  0.51887227  0.60659370  0.21023589    -0.11740
C1722       C  0.49573060  0.59253277  0.20582038     0.05270
C1723       C  0.47302797  0.60583446  0.19742326    -0.07020
C1724       C  0.47456139  0.63279820  0.19204070    -0.07770
C1725       C  0.49805487  0.64665835  0.19515532    -0.02320
C1726       C  0.52052189  0.63354275  0.20463026     0.04500
N1727       N  0.54536361  0.64668865  0.20716704     0.67000
H1728       H  0.53623212  0.59613067  0.21640031     0.15900
H1729       H  0.45736317  0.64313149  0.18520087     0.15610
N1730       N  0.44845849  0.59231582  0.19434840     0.74710
O1731       O  0.56194548  0.63861669  0.22367332    -0.38740
O1732       O  0.55214291  0.66415592  0.19091329    -0.38690
O1733       O  0.44262845  0.57338555  0.20927106    -0.39390
O1734       O  0.43126954  0.60112915  0.17888268    -0.39460
C1735       C  0.48372416  0.76199071  0.21671794    -0.11740
C1736       C  0.50259128  0.74209260  0.21819197     0.05270
C1737       C  0.52019879  0.74173363  0.23967696    -0.07020
C1738       C  0.51793824  0.76083802  0.25938428    -0.07770
C1739       C  0.49894298  0.78060538  0.25798921    -0.02320
C1740       C  0.48146332  0.78107780  0.23642342     0.04500
N1741       N  0.46061666  0.79989249  0.23479948     0.67000
H1742       H  0.46980895  0.76193857  0.20065449     0.15900
H1743       H  0.53170404  0.76081921  0.27557822     0.15610
N1744       N  0.54095249  0.72281408  0.24136798     0.74710
O1745       O  0.45296773  0.80811874  0.21268437    -0.38740
O1746       O  0.44770312  0.80586116  0.25503288    -0.38690
O1747       O  0.55338338  0.71618593  0.22103702    -0.39390
O1748       O  0.54888512  0.71495459  0.26351694    -0.39460
C1749       C  0.27538623  0.49936256  0.86586758    -0.11740
C1750       C  0.29582130  0.51420339  0.85490796     0.05270
C1751       C  0.31221705  0.52909424  0.87162025    -0.07020
C1752       C  0.30933259  0.52679746  0.89878795    -0.07770
C1753       C  0.28939753  0.51156098  0.90996690    -0.02320
C1754       C  0.27194081  0.49780572  0.89328432     0.04500
N1755       N  0.25195323  0.48082587  0.90362428     0.67000
H1756       H  0.26299182  0.48774737  0.85309624     0.15900
H1757       H  0.32263775  0.53745808  0.91134615     0.15610
N1758       N  0.33158275  0.54692048  0.86134520     0.74710
O1759       O  0.23055796  0.47826852  0.89150636    -0.38740
O1760       O  0.25696043  0.46551901  0.92248640    -0.38690
O1761       O  0.32658925  0.56077427  0.84137824    -0.39390
O1762       O  0.35249308  0.55109594  0.87387847    -0.39460
C1763       C  0.38055169  0.52188843  0.80612821    -0.11740
C1764       C  0.36442612  0.50996749  0.78721458     0.05270
C1765       C  0.37640703  0.49843810  0.76490559    -0.07020
C1766       C  0.40392331  0.49922486  0.76247357    -0.07770
C1767       C  0.41982015  0.50934251  0.78266942    -0.02320
C1768       C  0.40764216  0.52035222  0.80500990     0.04500
N1769       N  0.42218994  0.52943632  0.82733053     0.67000
H1770       H  0.37206265  0.53170416  0.82290540     0.15900
H1771       H  0.41302616  0.49044522  0.74542710     0.15610
N1772       N  0.36142049  0.48468753  0.74539809     0.74710
O1773       O  0.41875809  0.55254635  0.83543488    -0.38740
O1774       O  0.43181908  0.51276366  0.84292242    -0.38690
O1775       O  0.36807857  0.48577694  0.72154162    -0.39390
O1776       O  0.34396702  0.46853416  0.75227500    -0.39460
C1777       C  0.09504578  0.49952179  0.71801216    -0.11740
C1778       C  0.07955429  0.51112394  0.69836652     0.05270
C1779       C  0.09203078  0.52263525  0.67637741    -0.07020
C1780       C  0.11918029  0.52183776  0.67439245    -0.07770
C1781       C  0.13479223  0.50870834  0.69292446    -0.02320
C1782       C  0.12241749  0.49759367  0.71528895     0.04500
N1783       N  0.13680210  0.48285606  0.73444920     0.67000
H1784       H  0.08566251  0.49036276  0.73476397     0.15900
H1785       H  0.12815365  0.53182107  0.65791199     0.15610
N1786       N  0.07764155  0.53541770  0.65578920     0.74710
O1787       O  0.13134539  0.48498663  0.75853527    -0.38740
O1788       O  0.15193650  0.46479275  0.72714963    -0.38690
O1789       O  0.06107020  0.55280784  0.66128818    -0.39390
O1790       O  0.08408883  0.53207447  0.63209282    -0.39460
C1791       C  0.22453188  0.49729713  0.61485431    -0.11740
C1792       C  0.20460754  0.51248223  0.62608706     0.05270
C1793       C  0.18945910  0.52904075  0.60974896    -0.07020
C1794       C  0.19302609  0.52819510  0.58255097    -0.07770
C1795       C  0.21199300  0.51209154  0.57109271    -0.02320
C1796       C  0.22840994  0.49680434  0.58745658     0.04500
N1797       N  0.24785495  0.47956056  0.57675952     0.67000
H1798       H  0.23610696  0.48458345  0.62732773     0.15900
H1799       H  0.18104766  0.54060281  0.57012967     0.15610
N1800       N  0.17060597  0.54700522  0.62043866     0.74710
O1801       O  0.26893274  0.47573606  0.58908481    -0.38740
O1802       O  0.24266702  0.46544302  0.55706660    -0.38690
O1803       O  0.17570022  0.55971936  0.64109847    -0.39390
O1804       O  0.15000945  0.55226778  0.60782172    -0.39460
C1805       C  0.24920056  0.53351979  0.71989351    -0.11740
C1806       C  0.22970492  0.51406796  0.72142921     0.05270
C1807       C  0.23002897  0.49619377  0.74266579    -0.07020
C1808       C  0.24937006  0.49848500  0.76195963    -0.07770
C1809       C  0.26905090  0.51764651  0.76034404    -0.02320
C1810       C  0.26887865  0.53564490  0.73913007     0.04500
N1811       N  0.28784145  0.55647623  0.73715077     0.67000
H1812       H  0.24875067  0.54749375  0.70383799     0.15900
H1813       H  0.24983145  0.48424240  0.77779406     0.15610
N1814       N  0.21201249  0.47458535  0.74408911     0.74710
O1815       O  0.29429500  0.56538273  0.71491228    -0.38740
O1816       O  0.29618288  0.56786245  0.75752485    -0.38690
O1817       O  0.20816818  0.46034264  0.72418155    -0.39390
O1818       O  0.20307148  0.46731296  0.76604449    -0.39460
C1819       C  0.27847845  0.99608431  0.58705953    -0.11740
C1820       C  0.28584703  0.01777698  0.57182251     0.05270
C1821       C  0.29621181  0.04037967  0.58406405    -0.07020
C1822       C  0.30022937  0.04012231  0.61130968    -0.07770
C1823       C  0.29404924  0.01798490  0.62647516    -0.02320
C1824       C  0.28286299  0.99563892  0.61430030     0.04500
N1825       N  0.27749924  0.97187589  0.62872532     0.67000
H1826       H  0.27101480  0.97868126  0.57737847     0.15900
H1827       H  0.30853412  0.05721672  0.62084286     0.15610
N1828       N  0.30268975  0.06359358  0.56922172     0.74710
O1829       O  0.25942300  0.95669558  0.62127566    -0.38740
O1830       O  0.29278700  0.96422111  0.64663644    -0.38690
O1831       O  0.28941540  0.06990113  0.54928608    -0.39390
O1832       O  0.31976960  0.07942176  0.57763267    -0.39460
C1833       C  0.12054299  0.02320626  0.79940779    -0.11740
C1834       C  0.13509979  0.00608003  0.78360091     0.05270
C1835       C  0.12236021  0.99308202  0.76254662    -0.07020
C1836       C  0.09526097  0.99666570  0.75885451    -0.07770
C1837       C  0.08056098  0.01224789  0.77611692    -0.02320
C1838       C  0.09364143  0.02635483  0.79613776     0.04500
N1839       N  0.08000714  0.04394473  0.81340258     0.67000
H1840       H  0.13028010  0.03430314  0.81472102     0.15900
H1841       H  0.08529884  0.98566614  0.74362928     0.15610
N1842       N  0.13597919  0.97497325  0.74591071     0.74710
O1843       O  0.08700112  0.04617182  0.83709938    -0.38740
O1844       O  0.06302135  0.05944280  0.80438498    -0.38690
O1845       O  0.15133657  0.95830250  0.75575956    -0.39390
O1846       O  0.13000483  0.97320684  0.72190192    -0.39460
C1847       C  0.18308267  0.02050070  0.86922949    -0.11740
C1848       C  0.20109531  0.00587073  0.85446897     0.05270
C1849       C  0.22289761  0.99474061  0.86764754    -0.07020
C1850       C  0.22564079  0.99827542  0.89501251    -0.07770
C1851       C  0.20649862  0.01138928  0.90976539    -0.02320
C1852       C  0.18507447  0.02265485  0.89643764     0.04500
N1853       N  0.16475725  0.03605753  0.91020007     0.67000
H1854       H  0.16676970  0.03008013  0.85963977     0.15900
H1855       H  0.24196066  0.98920510  0.90506519     0.15610
N1856       N  0.24152769  0.97862263  0.85415031     0.74710
O1857       O  0.16415677  0.06079738  0.90993164    -0.38740
O1858       O  0.14475723  0.02344067  0.91745084    -0.38690
O1859       O  0.26537623  0.97952816  0.86048147    -0.39390
O1860       O  0.23385315  0.96108970  0.83841835    -0.39460
C1861       C  0.24992246  0.02669487  0.76186788    -0.11740
C1862       C  0.23088167  0.00689301  0.75993291     0.05270
C1863       C  0.23198246  0.98900224  0.73873266    -0.07020
C1864       C  0.25151500  0.99191221  0.71964615    -0.07770
C1865       C  0.27039033  0.01183477  0.72146014    -0.02320
C1866       C  0.26951897  0.02955704  0.74278359     0.04500
N1867       N  0.28738301  0.05128921  0.74464030     0.67000
H1868       H  0.24887815  0.04071799  0.77780405     0.15900
H1869       H  0.25245398  0.97804561  0.70355575     0.15610
N1870       N  0.21418475  0.96721741  0.73684366     0.74710
O1871       O  0.29270700  0.06481715  0.72453665    -0.38740
O1872       O  0.29510059  0.05914097  0.76685444    -0.38690
O1873       O  0.20643468  0.95939970  0.71462724    -0.39390
O1874       O  0.20888011  0.95367712  0.75694428    -0.39460
C1875       C  0.97748632  0.30177758  0.58265632    -0.11740
C1876       C  0.00120357  0.29852948  0.56932264     0.05270
C1877       C  0.02481362  0.29654016  0.58377691    -0.07020
C1878       C  0.02389418  0.29872623  0.61129685    -0.07770
C1879       C  0.00031180  0.30315167  0.62448533    -0.02320
C1880       C  0.97661451  0.30393804  0.61016760     0.04500
N1881       N  0.95175684  0.30733240  0.62306413     0.67000
H1882       H  0.95954033  0.30297241  0.57139464     0.15900
H1883       H  0.04191245  0.29852024  0.62250066     0.15610
N1884       N  0.04983504  0.29339905  0.57113834     0.74710
O1885       O  0.93228995  0.31572881  0.61034515    -0.38740
O1886       O  0.94840787  0.29967777  0.64642690    -0.38690
O1887       O  0.05366362  0.30167217  0.54809569    -0.39390
O1888       O  0.06898295  0.28428043  0.58384705    -0.39460
C1889       C  0.97871059  0.38851701  0.68150778    -0.11740
C1890       C  0.00011916  0.37425884  0.69109068     0.05270
C1891       C  0.01970918  0.38733393  0.70582471    -0.07020
C1892       C  0.01741326  0.41447010  0.71017603    -0.07770
C1893       C  0.99658361  0.42880482  0.69952495    -0.02320
C1894       C  0.97655898  0.41561040  0.68565157     0.04500
N1895       N  0.95380583  0.42924984  0.67611756     0.67000
H1896       H  0.96342576  0.37831396  0.67085048     0.15900
H1897       H  0.03286369  0.42479579  0.72046892     0.15610
N1898       N  0.04268310  0.37391586  0.71508155     0.74710
O1899       O  0.94127832  0.42052141  0.65659734    -0.38740
O1900       O  0.94434233  0.44814183  0.68894510    -0.38690
O1901       O  0.05347009  0.35659056  0.70113918    -0.39390
O1902       O  0.05414701  0.38164857  0.73565136    -0.39460
C1903       C  0.97255211  0.13044563  0.77756199    -0.11740
C1904       C  0.99584216  0.14463033  0.78069039     0.05270
C1905       C  0.02018189  0.13145002  0.77942309    -0.07020
C1906       C  0.02022359  0.10413866  0.77567677    -0.07770
C1907       C  0.99690411  0.08984792  0.77372210    -0.02320
C1908       C  0.97270761  0.10314899  0.77390589     0.04500
N1909       N  0.94827647  0.08933575  0.77101275     0.67000
H1910       H  0.95408984  0.14076147  0.77847328     0.15900
H1911       H  0.03860183  0.09370382  0.77537435     0.15610
N1912       N  0.04484222  0.14495224  0.78271699     0.74710
O1913       O  0.92754933  0.09872119  0.78054921    -0.38740
O1914       O  0.94671761  0.06935302  0.75649895    -0.38690
O1915       O  0.04647213  0.16587823  0.79584416    -0.39390
O1916       O  0.06564688  0.13476362  0.77423075    -0.39460
C1917       C  0.00839085  0.19269610  0.86739511    -0.11740
C1918       C  0.99333165  0.20994519  0.85214508     0.05270
C1919       C  0.98078995  0.23129897  0.86476093    -0.07020
C1920       C  0.98359992  0.23446744  0.89216257    -0.07770
C1921       C  0.99772268  0.21630456  0.90729708    -0.02320
C1922       C  0.01047479  0.19539090  0.89454316     0.04500
N1923       N  0.02675876  0.17743346  0.90871693     0.67000
H1924       H  0.01926866  0.17709702  0.85802378     0.15900
H1925       H  0.97347631  0.25034214  0.90190779     0.15610
N1926       N  0.96410082  0.24899158  0.85058701     0.74710
O1927       O  0.02732979  0.15346594  0.90250903    -0.38740
O1928       O  0.04317502  0.18616132  0.92498987    -0.38690
O1929       O  0.94789602  0.24025007  0.83404050    -0.39390
O1930       O  0.96306587  0.27287304  0.85703705    -0.39460
C1931       C  0.98213344  0.27916418  0.73659291    -0.11740
C1932       C  0.00405046  0.28037963  0.72011930     0.05270
C1933       C  0.02420502  0.26161912  0.72297104    -0.07020
C1934       C  0.02132935  0.24157170  0.74177642    -0.07770
C1935       C  0.99916461  0.24014013  0.75793568    -0.02320
C1936       C  0.97922656  0.25909809  0.75524144     0.04500
N1937       N  0.95542676  0.25753854  0.77021650     0.67000
H1938       H  0.96653897  0.29327755  0.73398709     0.15900
H1939       H  0.03671882  0.22722158  0.74426985     0.15610
N1940       N  0.04778969  0.26296207  0.70755706     0.74710
O1941       O  0.94337349  0.27821530  0.77635102    -0.38740
O1942       O  0.94463974  0.23562222  0.77441433    -0.38690
O1943       O  0.05688689  0.28482202  0.70020274    -0.39390
O1944       O  0.06112215  0.24254196  0.70360821    -0.39460
C1945       C  0.38025683  0.99949028  0.67390614    -0.11740
C1946       C  0.36508849  0.01311260  0.69239064     0.05270
C1947       C  0.37786085  0.02444904  0.71437169    -0.07020
C1948       C  0.40514426  0.02194242  0.71700080    -0.07770
C1949       C  0.42029265  0.01006216  0.69733619    -0.02320
C1950       C  0.40746817  0.99891482  0.67538040     0.04500
N1951       N  0.42151812  0.98734646  0.65399740     0.67000
H1952       H  0.37097703  0.98989211  0.65735865     0.15900
H1953       H  0.41477743  0.03089579  0.73371270     0.15610
N1954       N  0.36398537  0.04002429  0.73317153     0.74710
O1955       O  0.41599413  0.96423271  0.64706294    -0.38740
O1956       O  0.43305414  0.00215000  0.63780637    -0.38690
O1957       O  0.36954897  0.03833230  0.75728656    -0.39390
O1958       O  0.34935124  0.05836533  0.72542697    -0.39460
C1959       C  0.48087675  0.31134175  0.86883662    -0.11740
C1960       C  0.50405998  0.30459583  0.85587517     0.05270
C1961       C  0.52421345  0.29175377  0.86995995    -0.07020
C1962       C  0.52092545  0.28731213  0.89708873    -0.07770
C1963       C  0.49828497  0.29551782  0.91021726    -0.02320
C1964       C  0.47752082  0.30651699  0.89572053     0.04500
N1965       N  0.45273109  0.31200535  0.90775519     0.67000
H1966       H  0.46513252  0.32023497  0.85772051     0.15900
H1967       H  0.53672949  0.27873667  0.90835249     0.15610
N1968       N  0.54836989  0.28419418  0.85760335     0.74710
O1969       O  0.43790734  0.32931622  0.89813598    -0.38740
O1970       O  0.44389715  0.29696413  0.92539119    -0.38690
O1971       O  0.55771763  0.29737997  0.83879905    -0.39390
O1972       O  0.56168970  0.26558993  0.86701129    -0.39460
C1973       C  0.51673629  0.38592168  0.76883305    -0.11740
C1974       C  0.50047136  0.37454014  0.78798067     0.05270
C1975       C  0.48322661  0.39088343  0.80227595    -0.07020
C1976       C  0.48444099  0.41813590  0.79873372    -0.07770
C1977       C  0.50119613  0.42961152  0.78018175    -0.02320
C1978       C  0.51690814  0.41318738  0.76436056     0.04500
N1979       N  0.53404627  0.42375525  0.74469826     0.67000
H1980       H  0.52983521  0.37358098  0.75764214     0.15900
H1981       H  0.47169905  0.43058167  0.81023806     0.15610
N1982       N  0.46407123  0.38017728  0.82003405     0.74710
O1983       O  0.55730638  0.41570738  0.74327390    -0.38740
O1984       O  0.52471940  0.43670674  0.72575021    -0.38690
O1985       O  0.45740436  0.39281289  0.84025192    -0.39390
O1986       O  0.45170527  0.35953996  0.81412346    -0.39460
C1987       C  0.52197817  0.13262589  0.69871740    -0.11740
C1988       C  0.49762111  0.14500977  0.69648093     0.05270
C1989       C  0.47438135  0.12985739  0.69821349    -0.07020
C1990       C  0.47647350  0.10254641  0.70170616    -0.07770
C1991       C  0.50082304  0.09016594  0.70332154    -0.02320
C1992       C  0.52396169  0.10531995  0.70212615     0.04500
N1993       N  0.54943214  0.09340248  0.70367680     0.67000
H1994       H  0.53959917  0.14435951  0.69718988     0.15900
H1995       H  0.45894963  0.09059626  0.70255423     0.15610
N1996       N  0.44873603  0.14144201  0.69579111     0.74710
O1997       O  0.56892985  0.10446611  0.69320566    -0.38740
O1998       O  0.55304480  0.07300821  0.71728941    -0.38690
O1999       O  0.44522114  0.16561927  0.69962653    -0.39390
O2000       O  0.42901919  0.12714060  0.69140783    -0.39460
C2001       C  0.51407033  0.22715479  0.61503434    -0.11740
C2002       C  0.49340483  0.21328021  0.62677956     0.05270
C2003       C  0.47304221  0.20322711  0.61085691    -0.07020
C2004       C  0.47491877  0.20566431  0.58346290    -0.07770
C2005       C  0.49608767  0.21857107  0.57162558    -0.02320
C2006       C  0.51584786  0.22979621  0.58756231     0.04500
N2007       N  0.53854465  0.24231094  0.57638491     0.67000
H2008       H  0.52978357  0.23451447  0.62728353     0.15900
H2009       H  0.45955482  0.19765543  0.57116510     0.15610
N2010       N  0.45035107  0.19077896  0.62214718     0.74710
O2011       O  0.55043851  0.25998124  0.58903665    -0.38740
O2012       O  0.54871044  0.23361806  0.55556848    -0.38690
O2013       O  0.44141197  0.19842319  0.64393440    -0.39390
O2014       O  0.43751853  0.17406395  0.60912252    -0.39460
C2015       C  0.51872475  0.26015510  0.71943242    -0.11740
C2016       C  0.49963473  0.24039282  0.72147886     0.05270
C2017       C  0.48248852  0.24046711  0.74327354    -0.07020
C2018       C  0.48540362  0.25973740  0.76272550    -0.07770
C2019       C  0.50455343  0.27942774  0.76078329    -0.02320
C2020       C  0.52158046  0.27956252  0.73886186     0.04500
N2021       N  0.54238831  0.29847718  0.73645197     0.67000
H2022       H  0.53212861  0.25990857  0.70297276     0.15900
H2023       H  0.47189786  0.25997803  0.77910585     0.15610
N2024       N  0.46128411  0.22201765  0.74535961     0.74710
O2025       O  0.55002030  0.30577893  0.71401156    -0.38740
O2026       O  0.55513560  0.30570031  0.75643745    -0.38690
O2027       O  0.45403510  0.21385430  0.76763193    -0.39390
O2028       O  0.44752952  0.21664341  0.72547263    -0.39460
C2029       C  0.02192064  0.72080111  0.58528539    -0.11740
C2030       C  0.99774793  0.72242713  0.57243113     0.05270
C2031       C  0.97442635  0.72145569  0.58724834    -0.07020
C2032       C  0.97599516  0.71858505  0.61463510    -0.07770
C2033       C  0.00012752  0.71555141  0.62729386    -0.02320
C2034       C  0.02352310  0.71690449  0.61257038     0.04500
N2035       N  0.04881628  0.71363628  0.62467577     0.67000
H2036       H  0.03968584  0.72212154  0.57387239     0.15900
H2037       H  0.95818180  0.71707935  0.62603918     0.15610
N2038       N  0.94912224  0.72234996  0.57494212     0.74710
O2039       O  0.06793450  0.70561591  0.61126791    -0.38740
O2040       O  0.05269033  0.72027079  0.64824741    -0.38690
O2041       O  0.94488468  0.71005877  0.55385273    -0.39390
O2042       O  0.93006944  0.73255279  0.58685838    -0.39460
C2043       C  0.98236221  0.63363770  0.70896848    -0.11740
C2044       C  0.00310111  0.64524503  0.69511625     0.05270
C2045       C  0.02349772  0.62934435  0.68550199    -0.07020
C2046       C  0.02148227  0.60207305  0.68818831    -0.07770
C2047       C  0.00026394  0.59022196  0.70097795    -0.02320
C2048       C  0.98052636  0.60621916  0.71218674     0.04500
N2049       N  0.95813516  0.59543044  0.72577098     0.67000
H2050       H  0.96680199  0.64606174  0.71617971     0.15900
H2051       H  0.03693022  0.58989762  0.68056247     0.15610
N2052       N  0.04642422  0.64051197  0.67336230     0.74710
O2053       O  0.94437399  0.60992590  0.74030082    -0.38740
O2054       O  0.95077804  0.57208781  0.72208137    -0.38690
O2055       O  0.05530955  0.66235978  0.68095408    -0.39390
O2056       O  0.05958632  0.62726234  0.65717254    -0.39460
C2057       C  0.98380806  0.82055912  0.87018762    -0.11740
C2058       C  0.00209624  0.80656045  0.85530391     0.05270
C2059       C  0.01767759  0.78724604  0.86783608    -0.07020
C2060       C  0.01489204  0.78307051  0.89506437    -0.07770
C2061       C  0.99750432  0.79815216  0.90998219    -0.02320
C2062       C  0.98122987  0.81653406  0.89723530     0.04500
N2063       N  0.96155874  0.83074402  0.91139769     0.67000
H2064       H  0.97113842  0.83460300  0.86053745     0.15900
H2065       H  0.02761427  0.76924859  0.90495074     0.15610
N2066       N  0.03737752  0.77291345  0.85378373     0.74710
O2067       O  0.95528518  0.85365445  0.90438531    -0.38740
O2068       O  0.94816171  0.81925485  0.92877304    -0.38690
O2069       O  0.05155780  0.78432427  0.83697753    -0.39390
O2070       O  0.04281719  0.74968205  0.86042232    -0.39460
C2071       C  0.98097031  0.88587514  0.78338588    -0.11740
C2072       C  0.00544372  0.87368754  0.78456222     0.05270
C2073       C  0.02844397  0.88894424  0.78217986    -0.07020
C2074       C  0.02614285  0.91635440  0.77992882    -0.07770
C2075       C  0.00165785  0.92865061  0.77968673    -0.02320
C2076       C  0.97856994  0.91323221  0.78091960     0.04500
N2077       N  0.95274309  0.92462638  0.78019869     0.67000
H2078       H  0.96357749  0.87389011  0.78550616     0.15900
H2079       H  0.04360404  0.92834023  0.77847112     0.15610
N2080       N  0.05405493  0.87717691  0.78241014     0.74710
O2081       O  0.93298637  0.91034574  0.77593278    -0.38740
O2082       O  0.94920194  0.94863793  0.78482287    -0.38690
O2083       O  0.05732157  0.85387135  0.77477107    -0.39390
O2084       O  0.07393785  0.89083179  0.78792851    -0.39460
C2085       C  0.02182313  0.75269411  0.72654076    -0.11740
C2086       C  0.99817280  0.73944011  0.72215620     0.05270
C2087       C  0.97575917  0.74592387  0.73721208    -0.07020
C2088       C  0.97822761  0.76541926  0.75664484    -0.07770
C2089       C  0.00195705  0.77852217  0.76102648    -0.02320
C2090       C  0.02413125  0.77207487  0.74589810     0.04500
N2091       N  0.04908706  0.78457175  0.75012023     0.67000
H2092       H  0.03880519  0.74748353  0.71497866     0.15900
H2093       H  0.96142972  0.77081239  0.76836622     0.15610
N2094       N  0.95044895  0.73388982  0.73282920     0.74710
O2095       O  0.06527914  0.78644218  0.73150587    -0.38740
O2096       O  0.05616246  0.79135598  0.77289257    -0.38690
O2097       O  0.94765647  0.71441935  0.71780405    -0.39390
O2098       O  0.93040433  0.74292686  0.74404134    -0.39460
C2099       C  0.72474396  0.99492129  0.58535354    -0.11740
C2100       C  0.70600147  0.00846608  0.57036557     0.05270
C2101       C  0.68500665  0.02074825  0.58353810    -0.07020
C2102       C  0.68354519  0.01956929  0.61083505    -0.07770
C2103       C  0.70097170  0.00448498  0.62581718    -0.02320
C2104       C  0.72205498  0.99200159  0.61280608     0.04500
N2105       N  0.73994431  0.97521018  0.62659881     0.67000
H2106       H  0.74066832  0.98510587  0.57542965     0.15900
H2107       H  0.66785003  0.03010794  0.62036532     0.15610
N2108       N  0.66473029  0.03453219  0.56986989     0.74710
O2109       O  0.73151612  0.95856700  0.64294151    -0.38740
O2110       O  0.76368530  0.97449727  0.61992234    -0.38690
O2111       O  0.64776167  0.02153984  0.55738530    -0.39390
O2112       O  0.65897229  0.05739224  0.57730158    -0.39460
C2113       C  0.62395970  0.99170600  0.71606488    -0.11740
C2114       C  0.63566810  0.00818859  0.69731157     0.05270
C2115       C  0.62019290  0.02705694  0.68409957    -0.07020
C2116       C  0.59317203  0.02725574  0.68819687    -0.07770
C2117       C  0.58117894  0.00999841  0.70597907    -0.02320
C2118       C  0.59688266  0.99263027  0.72086627     0.04500
N2119       N  0.58568321  0.97480314  0.73961607     0.67000
H2120       H  0.63583612  0.97749160  0.72644880     0.15900
H2121       H  0.58125631  0.04106423  0.67729540     0.15610
N2122       N  0.63154879  0.04606881  0.66649031     0.74710
O2123       O  0.59345173  0.95133495  0.74054755    -0.38740
O2124       O  0.57191091  0.98349087  0.75819606    -0.38690
O2125       O  0.61871461  0.05435679  0.64697681    -0.39390
O2126       O  0.65319473  0.05672232  0.67190831    -0.39460
C2127       C  0.80640299  0.99376699  0.89790009    -0.11740
C2128       C  0.78700628  0.00908136  0.90972724     0.05270
C2129       C  0.77025118  0.02429922  0.89362853    -0.07020
C2130       C  0.77425699  0.02449413  0.86620396    -0.07770
C2131       C  0.79442606  0.00981258  0.85467540    -0.02320
C2132       C  0.80968339  0.99310525  0.87070309     0.04500
N2133       N  0.82827141  0.97505361  0.85967870     0.67000
H2134       H  0.81906285  0.98183563  0.90999965     0.15900
H2135       H  0.76252237  0.03729151  0.85397430     0.15610
N2136       N  0.75042657  0.04090734  0.90462443     0.74710
O2137       O  0.84883075  0.96930714  0.87214317    -0.38740
O2138       O  0.82277235  0.96248683  0.83903035    -0.38690
O2139       O  0.75520743  0.05454105  0.92475270    -0.39390
O2140       O  0.72942208  0.04478230  0.89218832    -0.39460
C2141       C  0.90404254  0.02051465  0.76215886    -0.11740
C2142       C  0.91938555  0.00836586  0.78159071     0.05270
C2143       C  0.90679615  0.99753926  0.80383289    -0.07020
C2144       C  0.87969442  0.99884849  0.80596661    -0.07770
C2145       C  0.86436007  0.01278086  0.78776479    -0.02320
C2146       C  0.87687109  0.02377225  0.76541118     0.04500
N2147       N  0.86291289  0.03964359  0.74679938     0.67000
H2148       H  0.91348245  0.02911590  0.74516041     0.15900
H2149       H  0.87069129  0.98933627  0.82270326     0.15610
N2150       N  0.92104377  0.98540819  0.82482183     0.74710
O2151       O  0.84791263  0.05756292  0.75473707    -0.38740
O2152       O  0.86851152  0.03848070  0.72267797    -0.38690
O2153       O  0.93180740  0.99976364  0.84190572    -0.39390
O2154       O  0.91658293  0.96166562  0.83033690    -0.39460
C2155       C  0.75205897  0.98918895  0.75947060    -0.11740
C2156       C  0.76971588  0.01029145  0.75936613     0.05270
C2157       C  0.76788162  0.02965531  0.73944991    -0.07020
C2158       C  0.74866527  0.02706477  0.71988166    -0.07770
C2159       C  0.73082249  0.00614593  0.72030156    -0.02320
C2160       C  0.73270520  0.98701364  0.74019938     0.04500
N2161       N  0.71565484  0.96475900  0.74048136     0.67000
H2162       H  0.75350175  0.97414634  0.77447612     0.15900
H2163       H  0.74687479  0.04203966  0.70485543     0.15610
N2164       N  0.78436831  0.05257193  0.73950988     0.74710
O2165       O  0.72187452  0.94434114  0.72801393    -0.38740
O2166       O  0.69652673  0.96411941  0.75608970    -0.38690
O2167       O  0.79079665  0.06333215  0.71810065    -0.39390
O2168       O  0.78969308  0.06408288  0.76080763    -0.39460
C2169       C  0.68430658  0.62592259  0.00703200    -0.11740
C2170       C  0.70149581  0.64173514  0.99231900     0.05270
C2171       C  0.72231847  0.62941544  0.97868487    -0.07020
C2172       C  0.72492880  0.60192257  0.97986049    -0.07770
C2173       C  0.70640699  0.58627051  0.99291220    -0.02320
C2174       C  0.68599278  0.59860898  0.00673410     0.04500
N2175       N  0.66662471  0.58373631  0.02055096     0.67000
H2176       H  0.66876236  0.63478258  0.01837026     0.15900
H2177       H  0.74058125  0.59259558  0.96905983     0.15610
N2178       N  0.73996160  0.64401620  0.96229304     0.74710
O2179       O  0.66650199  0.58384874  0.04533922    -0.38740
O2180       O  0.64669362  0.57562667  0.00835704    -0.38690
O2181       O  0.76396551  0.63836892  0.96207234    -0.39390
O2182       O  0.73117685  0.65979603  0.94532376    -0.39460
C2183       C  0.62007074  0.69982284  0.96667995    -0.11740
C2184       C  0.63535673  0.71291585  0.98546098     0.05270
C2185       C  0.62322609  0.73115814  0.00251236    -0.07020
C2186       C  0.59609312  0.73526659  0.00051396    -0.07770
C2187       C  0.58068589  0.72052586  0.98308571    -0.02320
C2188       C  0.59294508  0.70296658  0.96547984     0.04500
N2189       N  0.57832208  0.68798251  0.94646210     0.67000
H2190       H  0.62939678  0.68649602  0.95305392     0.15900
H2191       H  0.58664443  0.74846748  0.01417031     0.15610
N2192       N  0.63748932  0.74407493  0.02316826     0.74710
O2193       O  0.58663991  0.66598321  0.93881441    -0.38740
O2194       O  0.55857757  0.69768375  0.93526415    -0.38690
O2195       O  0.63106528  0.76687631  0.03028798    -0.39390
O2196       O  0.65374173  0.73146334  0.03690485    -0.39460
C2197       C  0.87913549  0.82639777  0.98292629    -0.11740
C2198       C  0.86417127  0.80679297  0.99536131     0.05270
C2199       C  0.87731442  0.78447014  0.00541553    -0.07020
C2200       C  0.90467170  0.78264013  0.00285231    -0.07770
C2201       C  0.91958985  0.80332983  0.99223609    -0.02320
C2202       C  0.90637283  0.82571903  0.98254962     0.04500
N2203       N  0.91995657  0.84845304  0.97296829     0.67000
H2204       H  0.86966204  0.84324795  0.97414550     0.15900
H2205       H  0.91450527  0.76554782  0.01072514     0.15610
N2206       N  0.86372346  0.76432908  0.01964840     0.74710
O2207       O  0.91389834  0.85776137  0.95078929    -0.38740
O2208       O  0.93161194  0.86312173  0.98917585    -0.38690
O2209       O  0.86974502  0.74055879  0.01636222    -0.39390
O2210       O  0.84878080  0.77040437  0.03836428    -0.39460
C2211       C  0.80817479  0.88601196  0.97657595    -0.11740
C2212       C  0.79339456  0.87175864  0.99494617     0.05270
C2213       C  0.77364557  0.88477851  0.00935494    -0.07020
C2214       C  0.77023595  0.91201000  0.00574902    -0.07770
C2215       C  0.78642007  0.92638717  0.98864544    -0.02320
C2216       C  0.80494851  0.91297535  0.97320680     0.04500
N2217       N  0.82022675  0.92632836  0.95362579     0.67000
H2218       H  0.82250060  0.87593353  0.96462675     0.15900
H2219       H  0.75608088  0.92232415  0.01767095     0.15610
N2220       N  0.75801077  0.87128072  0.02860876     0.74710
O2221       O  0.84334447  0.91915443  0.94890024    -0.38740
O2222       O  0.80952227  0.94283337  0.93861725    -0.38690
O2223       O  0.76795015  0.85382174  0.04309427    -0.39390
O2224       O  0.73497193  0.87878398  0.03318602    -0.39460
C2225       C  0.75112236  0.77654690  0.97243009    -0.11740
C2226       C  0.76984548  0.77598391  0.99257746     0.05270
C2227       C  0.76925507  0.75531606  0.01114774    -0.07020
C2228       C  0.75002693  0.73575403  0.00903176    -0.07770
C2229       C  0.73101682  0.73648366  0.98913410    -0.02320
C2230       C  0.73191406  0.75692875  0.97022939     0.04500
N2231       N  0.71413478  0.75767968  0.94831339     0.67000
H2232       H  0.75189357  0.79209657  0.95790436     0.15900
H2233       H  0.74915500  0.72046794  0.02382666     0.15610
N2234       N  0.78701794  0.75461897  0.03303588     0.74710
O2235       O  0.70682951  0.77942455  0.93897221    -0.38740
O2236       O  0.70802975  0.73684498  0.93638061    -0.38690
O2237       O  0.79171547  0.77520578  0.04598579    -0.39390
O2238       O  0.79530147  0.73290945  0.04158522    -0.39460
C2239       C  0.69009561  0.48898304  0.86932685    -0.11740
C2240       C  0.70362098  0.50840209  0.85516532     0.05270
C2241       C  0.72157239  0.52475383  0.86862126    -0.07020
C2242       C  0.72501522  0.52163852  0.89585988    -0.07770
C2243       C  0.71007087  0.50344436  0.91014857    -0.02320
C2244       C  0.69291206  0.48634754  0.89660508     0.04500
N2245       N  0.67830405  0.46622756  0.91008647     0.67000
H2246       H  0.67693152  0.47588405  0.85899808     0.15900
H2247       H  0.73789714  0.53496187  0.90626727     0.15610
N2248       N  0.73462049  0.54604615  0.85557290     0.74710
O2249       O  0.65643635  0.45877871  0.90127537    -0.38740
O2250       O  0.68836293  0.45382666  0.92903387    -0.38690
O2251       O  0.72165364  0.56189479  0.84168140    -0.39390
O2252       O  0.75796343  0.55162072  0.86141878    -0.39460
C2253       C  0.61941098  0.53424710  0.80094043    -0.11740
C2254       C  0.63537679  0.51757722  0.78610721     0.05270
C2255       C  0.62383377  0.50179159  0.76628396    -0.07020
C2256       C  0.59656234  0.50256042  0.76257806    -0.07770
C2257       C  0.58058468  0.51793924  0.77876042    -0.02320
C2258       C  0.59228508  0.53465230  0.79760354     0.04500
N2259       N  0.57700435  0.55225746  0.81340087     0.67000
H2260       H  0.62821119  0.54705629  0.81546100     0.15900
H2261       H  0.58759883  0.48960400  0.74829672     0.15610
N2262       N  0.63898924  0.48364225  0.75104366     0.74710
O2263       O  0.58393793  0.55745850  0.83663917    -0.38740
O2264       O  0.55845975  0.56503909  0.80325670    -0.38690
O2265       O  0.65581697  0.46924524  0.76202989    -0.39390
O2266       O  0.63312424  0.47940420  0.72732286    -0.39460
C2267       C  0.80766556  0.52816651  0.58090000    -0.11740
C2268       C  0.78812164  0.51246637  0.56965084     0.05270
C2269       C  0.77065879  0.49863441  0.58625894    -0.07020
C2270       C  0.77421888  0.49984246  0.61367215    -0.07770
C2271       C  0.79477336  0.51444431  0.62475656    -0.02320
C2272       C  0.81085021  0.52984936  0.60812598     0.04500
N2273       N  0.83028566  0.54746983  0.61853890     0.67000
H2274       H  0.82038810  0.53963494  0.56829575     0.15900
H2275       H  0.76188216  0.48799985  0.62630362     0.15610
N2276       N  0.75037881  0.48207915  0.57584845     0.74710
O2277       O  0.85126997  0.55155673  0.60613974    -0.38740
O2278       O  0.82546115  0.56096819  0.63872718    -0.38690
O2279       O  0.75524186  0.46634004  0.55737692    -0.39390
O2280       O  0.72866781  0.48046897  0.58750681    -0.39460
C2281       C  0.87889813  0.52482287  0.67658871    -0.11740
C2282       C  0.86362352  0.50839845  0.69262606     0.05270
C2283       C  0.87600188  0.49435853  0.71323811    -0.07020
C2284       C  0.90325055  0.49693485  0.71675114    -0.07770
C2285       C  0.91848085  0.51216389  0.69950115    -0.02320
C2286       C  0.90595198  0.52658444  0.67937266     0.04500
N2287       N  0.92023643  0.54308101  0.66142716     0.67000
H2288       H  0.86965209  0.53660232  0.66150960     0.15900
H2289       H  0.91285959  0.48550441  0.73188731     0.15610
N2290       N  0.86179873  0.47629990  0.72963474     0.74710
O2291       O  0.91354511  0.54426474  0.63756489    -0.38740
O2292       O  0.93742879  0.55876207  0.66982999    -0.38690
O2293       O  0.84495393  0.46108550  0.71975490    -0.39390
O2294       O  0.86840697  0.47313217  0.75333587    -0.39460
C2295       C  0.77248799  0.52905166  0.74197015    -0.11740
C2296       C  0.76883223  0.51242594  0.72026504     0.05270
C2297       C  0.74544066  0.49759023  0.71845377    -0.07020
C2298       C  0.72639476  0.50005296  0.73807277    -0.07770
C2299       C  0.73008310  0.51657903  0.75981804    -0.02320
C2300       C  0.75338946  0.53147981  0.76160365     0.04500
N2301       N  0.75747021  0.55004674  0.78240247     0.67000
H2302       H  0.78995794  0.54103470  0.74317740     0.15900
H2303       H  0.70890194  0.48809321  0.73685280     0.15610
N2304       N  0.74104851  0.47917771  0.69752553     0.74710
O2305       O  0.78001016  0.55328010  0.79200239    -0.38740
O2306       O  0.73946045  0.56566624  0.78872156    -0.38690
O2307       O  0.75893490  0.46365773  0.69059762    -0.39390
O2308       O  0.71842187  0.47630815  0.68801415    -0.39460
C2309       C  0.68477824  0.88871105  0.47734842    -0.11740
C2310       C  0.70249049  0.87354442  0.49198500     0.05270
C2311       C  0.72442206  0.88607378  0.50358894    -0.07020
C2312       C  0.72745881  0.91346123  0.50065951    -0.07770
C2313       C  0.70864795  0.92856597  0.48736131    -0.02320
C2314       C  0.68736467  0.91579349  0.47520747     0.04500
N2315       N  0.66802826  0.93000522  0.46061448     0.67000
H2316       H  0.66849437  0.87940180  0.46737782     0.15900
H2317       H  0.74365421  0.92323179  0.51029865     0.15610
N2318       N  0.74280570  0.87188861  0.51955159     0.74710
O2319       O  0.67465000  0.94380057  0.44109398    -0.38740
O2320       O  0.64410164  0.92713035  0.46594583    -0.38690
O2321       O  0.76650379  0.87883181  0.52010379    -0.39390
O2322       O  0.73496843  0.85462638  0.53554465    -0.39460
C2323       C  0.59333203  0.78230778  0.50008262    -0.11740
C2324       C  0.57837254  0.80225533  0.48834272     0.05270
C2325       C  0.59133810  0.82399196  0.47714631    -0.07020
C2326       C  0.61849108  0.82554788  0.47811987    -0.07770
C2327       C  0.63353366  0.80668145  0.49146636    -0.02320
C2328       C  0.62069496  0.78453126  0.50235475     0.04500
N2329       N  0.63464434  0.76505658  0.51709426     0.67000
H2330       H  0.58355594  0.76562708  0.50894270     0.15900
H2331       H  0.62786068  0.84220727  0.46876884     0.15610
N2332       N  0.57730337  0.84486904  0.46477050     0.74710
O2333       O  0.65023604  0.77196156  0.53503269    -0.38740
O2334       O  0.62847562  0.74114876  0.51502488    -0.38690
O2335       O  0.56972177  0.86404543  0.47841306    -0.39390
O2336       O  0.57754353  0.84688704  0.44006268    -0.39460
C2337       C  0.81363456  0.62961009  0.47327014    -0.11740
C2338       C  0.79602094  0.64532246  0.48731627     0.05270
C2339       C  0.77413498  0.63322476  0.49947394    -0.07020
C2340       C  0.77090478  0.60581679  0.49750486    -0.07770
C2341       C  0.78948543  0.59020730  0.48463993    -0.02320
C2342       C  0.81083876  0.60244529  0.47197211     0.04500
N2343       N  0.82985017  0.58768194  0.45749187     0.67000
H2344       H  0.82980624  0.63856545  0.46286120     0.15900
H2345       H  0.75471125  0.59646226  0.50754913     0.15610
N2346       N  0.75595693  0.64794248  0.51507463     0.74710
O2347       O  0.82260159  0.57152361  0.44016311    -0.38740
O2348       O  0.85388002  0.59280463  0.45999702    -0.38690
O2349       O  0.73211041  0.64152893  0.51546799    -0.39390
O2350       O  0.76408261  0.66512519  0.53096688    -0.39460
C2351       C  0.87307025  0.73684963  0.49941163    -0.11740
C2352       C  0.86265717  0.71561226  0.48521686     0.05270
C2353       C  0.87980789  0.69926090  0.47093719    -0.07020
C2354       C  0.90671246  0.70241588  0.47393070    -0.07770
C2355       C  0.91738704  0.72273917  0.48906064    -0.02320
C2356       C  0.90031127  0.74092260  0.50126121     0.04500
N2357       N  0.90986905  0.76280285  0.51634143     0.67000
H2358       H  0.86000132  0.74959374  0.51016165     0.15900
H2359       H  0.91954093  0.68906493  0.46372053     0.15610
N2360       N  0.87024623  0.67967044  0.45295446     0.74710
O2361       O  0.89695073  0.78385528  0.51708821    -0.38740
O2362       O  0.92931759  0.76029564  0.53137988    -0.38690
O2363       O  0.85105180  0.68461866  0.43815978    -0.39390
O2364       O  0.88269004  0.65857030  0.44968471    -0.39460
C2365       C  0.74733381  0.73730998  0.50029616    -0.11740
C2366       C  0.76702136  0.73933319  0.48123962     0.05270
C2367       C  0.76686800  0.76086784  0.46360185    -0.07020
C2368       C  0.74737141  0.78012079  0.46613458    -0.07770
C2369       C  0.72797971  0.77823997  0.48558443    -0.02320
C2370       C  0.72815245  0.75659389  0.50297013     0.04500
N2371       N  0.71018883  0.75476241  0.52455747     0.67000
H2372       H  0.74776178  0.72126258  0.51428996     0.15900
H2373       H  0.74700067  0.79647092  0.45251377     0.15610
N2374       N  0.78573868  0.76318955  0.44276219     0.74710
O2375       O  0.70096431  0.73274022  0.53123030    -0.38740
O2376       O  0.70666719  0.77428178  0.53935715    -0.38690
O2377       O  0.79374684  0.74305095  0.43085459    -0.39390
O2378       O  0.79249104  0.78554608  0.43442470    -0.39460
C2379       C  0.51716306  0.72835008  0.86442466    -0.11740
C2380       C  0.49485778  0.71732216  0.85280653     0.05270
C2381       C  0.47284047  0.71130584  0.86847434    -0.07020
C2382       C  0.47462081  0.71467504  0.89578378    -0.07770
C2383       C  0.49735576  0.72456437  0.90759512    -0.02320
C2384       C  0.51875789  0.73229305  0.89170269     0.04500
N2385       N  0.54264181  0.74260576  0.90271873     0.67000
H2386       H  0.53383206  0.73302017  0.85215308     0.15900
H2387       H  0.45820442  0.70933194  0.90809805     0.15610
N2388       N  0.44879825  0.70172679  0.85710881     0.74710
O2389       O  0.56403121  0.73960542  0.89075720    -0.38740
O2390       O  0.54234368  0.75656442  0.92315812    -0.38690
O2391       O  0.44249035  0.70780790  0.83389683    -0.39390
O2392       O  0.43244037  0.68949478  0.87111774    -0.39460
C2393       C  0.47668620  0.63158944  0.79354130    -0.11740
C2394       C  0.49913606  0.64583931  0.78670996     0.05270
C2395       C  0.52041695  0.63276976  0.77478212    -0.07020
C2396       C  0.51865359  0.60555198  0.77050696    -0.07770
C2397       C  0.49659544  0.59120881  0.77843668    -0.02320
C2398       C  0.47498270  0.60445463  0.78937893     0.04500
N2399       N  0.45109979  0.59089588  0.79583916     0.67000
H2400       H  0.46023824  0.64188200  0.80203322     0.15900
H2401       H  0.53522590  0.59519360  0.76235810     0.15610
N2402       N  0.54430308  0.64630405  0.76823497     0.74710
O2403       O  0.43533500  0.60074091  0.81211837    -0.38740
O2404       O  0.44392585  0.57115299  0.78272193    -0.38690
O2405       O  0.55263837  0.66483846  0.78240519    -0.39390
O2406       O  0.55869350  0.63781696  0.75001528    -0.39460
C2407       C  0.47735168  0.79496849  0.58394223    -0.11740
C2408       C  0.50017936  0.79985623  0.56954124     0.05270
C2409       C  0.52358571  0.80638725  0.58286975    -0.07020
C2410       C  0.52323440  0.80842952  0.61033903    -0.07770
C2411       C  0.50019652  0.80463869  0.62472308    -0.02320
C2412       C  0.47686044  0.79741731  0.61148857     0.04500
N2413       N  0.45246366  0.79356715  0.62521154     0.67000
H2414       H  0.45962333  0.78980221  0.57347367     0.15900
H2415       H  0.54089162  0.81423443  0.62060427     0.15610
N2416       N  0.54775372  0.81116345  0.56912543     0.74710
O2417       O  0.43104688  0.79542114  0.61300455    -0.38740
O2418       O  0.45205084  0.78631732  0.64892185    -0.38690
O2419       O  0.54796192  0.82321706  0.54745921    -0.39390
O2420       O  0.56928933  0.80604861  0.58010550    -0.39460
C2421       C  0.47856308  0.88817414  0.68740471    -0.11740
C2422       C  0.50151334  0.87426875  0.69282477     0.05270
C2423       C  0.52326898  0.88756319  0.70379107    -0.07020
C2424       C  0.52151175  0.91472218  0.70837437    -0.07770
C2425       C  0.49885147  0.92874471  0.70193316    -0.02320
C2426       C  0.47676551  0.91523086  0.69206485     0.04500
N2427       N  0.45239942  0.92842708  0.68701989     0.67000
H2428       H  0.46184597  0.87767692  0.67958085     0.15900
H2429       H  0.53842108  0.92528826  0.71568126     0.15610
N2430       N  0.54752681  0.87430442  0.70916205     0.74710
O2431       O  0.43571393  0.91825425  0.67181080    -0.38740
O2432       O  0.44590184  0.94818501  0.70038832    -0.38690
O2433       O  0.55535412  0.85601722  0.69447318    -0.39390
O2434       O  0.56261223  0.88275841  0.72689863    -0.39460
C2435       C  0.47973684  0.77280378  0.73061207    -0.11740
C2436       C  0.50388925  0.77987547  0.71970260     0.05270
C2437       C  0.52688629  0.76670926  0.72771237    -0.07020
C2438       C  0.52484011  0.74656535  0.74651095    -0.07770
C2439       C  0.50068723  0.73961441  0.75749625    -0.02320
C2440       C  0.47770342  0.75267871  0.74935725     0.04500
N2441       N  0.45230724  0.74569038  0.75954030     0.67000
H2442       H  0.46224389  0.78275557  0.72395867     0.15900
H2443       H  0.54229608  0.73659293  0.75321796     0.15610
N2444       N  0.55227176  0.77356179  0.71740146     0.74710
O2445       O  0.43390782  0.76213871  0.75904030    -0.38740
O2446       O  0.44735026  0.72247574  0.76668774    -0.38690
O2447       O  0.55695912  0.79640294  0.70899460    -0.39390
O2448       O  0.57086792  0.75738256  0.71874854    -0.39460
loop_ 
_geom_bond_atom_site_label_1 
_geom_bond_atom_site_label_2 
_geom_bond_distance 
_geom_bond_site_symmetry_2 
_ccdc_geom_bond_type 
C1            C2   1.404       .  A
C1            C6   1.404       .  A
C1         C2436   1.474       .  S
C2            C3   1.402       .  A
C2            H7   1.084       .  S
C3            C4   1.402       .  A
C3         C2422   1.478       .  S
C4            C5   1.401       .  A
C4            H8   1.084       .  S
C5            C6   1.402       .  A
C5         C2411   1.477       .  S
C6            H9   1.084       .  S
C10          C11   1.404       .  A
C10          C15   1.403       .  A
C10        C2439   1.473       .  S
C11          C12   1.403       .  A
C11          H16   1.084       .  S
C12          C13   1.402       .  A
C12        C2394   1.479       .  S
C13          C14   1.401       .  A
C13          H17   1.084       .  S
C14          C15   1.400       .  A
C14        C2380   1.476       .  S
C15          H18   1.084       .  S
C19          C20   1.409       .  A
C19          C24   1.408       .  A
C19        C2366   1.484       .  S
C20          C21   1.403       .  A
C20          H25   1.083       .  S
C21          C22   1.402       .  A
C21        C2352   1.488       .  S
C22          C23   1.402       .  A
C22          H26   1.084       .  S
C23          C24   1.402       .  A
C23        C2338   1.491       .  S
C24          H27   1.083       .  S
C28          C29   1.411       .  A
C28          C33   1.408       .  A
C28        C2369   1.485       .  S
C29          C30   1.405       .  A
C29          H34   1.083       .  S
C30          C31   1.400       .  A
C30        C2327   1.493       .  S
C31          C32   1.401       .  A
C31          H35   1.084       .  S
C32          C33   1.403       .  A
C32        C2310   1.490       .  S
C33          H36   1.083       .  S
C37          C38   1.411       .  A
C37          C42   1.410       .  A
C37        C2296   1.490       .  S
C38          C39   1.406       .  A
C38          H43   1.083       .  S
C39          C40   1.403       .  A
C39        C2282   1.493       .  S
C40          C41   1.399       .  A
C40          H44   1.084       .  S
C41          C42   1.402       .  A
C41        C2271   1.487       .  S
C42          H45   1.083       .  S
C46          C47   1.409       .  A
C46          C51   1.411       .  A
C46        C2299   1.489       .  S
C47          C48   1.402       .  A
C47          H52   1.084       .  S
C48          C49   1.402       .  A
C48        C2254   1.488       .  S
C49          C50   1.402       .  A
C49          H53   1.084       .  S
C50          C51   1.406       .  A
C50        C2240   1.489       .  S
C51          H54   1.083       .  S
C55          C56   1.407       .  A
C55          C60   1.411       .  A
C55        C2226   1.484       .  S
C56          C57   1.400       .  A
C56          H61   1.083       .  S
C57          C58   1.399   1_556  A
C57        C2212   1.485       .  S
C58          C59   1.405   1_554  A
C58          H62   1.083       .  S
C59          C60   1.409       .  A
C59        C2198   1.500       .  S
C60          H63   1.082       .  S
C64          C65   1.408       .  A
C64          C69   1.410       .  A
C64        C2229   1.488       .  S
C65          C66   1.402       .  A
C65          H70   1.083       .  S
C66          C67   1.401       .  A
C66        C2184   1.488       .  S
C67          C68   1.404       .  A
C67          H71   1.083       .  S
C68          C69   1.407       .  A
C68        C2170   1.497       .  S
C69          H72   1.082       .  S
C73          C74   1.406       .  A
C73          C78   1.409       .  A
C73        C2156   1.479       .  S
C74          C75   1.399       .  A
C74          H79   1.083       .  S
C75          C76   1.402       .  A
C75        C2131   1.486       .  S
C76          C77   1.406       .  A
C76          H80   1.083       .  S
C77          C78   1.407       .  A
C77        C2145   1.498       .  S
C78          H81   1.082       .  S
C82          C83   1.407       .  A
C82          C87   1.406       .  A
C82        C2159   1.478       .  S
C83          C84   1.406       .  A
C83          H88   1.083       .  S
C84          C85   1.407       .  A
C84        C2103   1.495       .  S
C85          C86   1.399       .  A
C85          H89   1.084   1_545  S
C86          C87   1.399       .  A
C86        C2114   1.484       .  S
C87          H90   1.084       .  S
C91          C92   1.404       .  A
C91          C96   1.404       .  A
C91        C2089   1.475       .  S
C92          C93   1.401       .  A
C92          H97   1.084       .  S
C93          C94   1.400       .  A
C93        C2072   1.476       .  S
C94          C95   1.405       .  A
C94          H98   1.084       .  S
C95          C96   1.404       .  A
C95        C2058   1.485       .  S
C96          H99   1.084       .  S
C100        C101   1.405       .  A
C100        C105   1.403       .  A
C100       C2086   1.474       .  S
C101        C102   1.403   1_655  A
C101        H106   1.084   1_655  S
C102        C103   1.404       .  A
C102       C2044   1.480       .  S
C103        C104   1.400       .  A
C103        H107   1.084       .  S
C104        C105   1.400   1_455  A
C104       C2033   1.473       .  S
C105        H108   1.084       .  S
C109        C110   1.408       .  A
C109        C114   1.410       .  A
C109       C2016   1.489       .  S
C110        C111   1.404       .  A
C110        H115   1.084       .  S
C111        C112   1.403       .  A
C111       C2002   1.483       .  S
C112        C113   1.399       .  A
C112        H116   1.084       .  S
C113        C114   1.403       .  A
C113       C1988   1.479       .  S
C114        H117   1.084       .  S
C118        C119   1.407       .  A
C118        C123   1.411       .  A
C118       C2019   1.488       .  S
C119        C120   1.401       .  A
C119        H124   1.084       .  S
C120        C121   1.399       .  A
C120       C1960   1.479       .  S
C121        C122   1.403       .  A
C121        H125   1.084       .  S
C122        C123   1.408       .  A
C122       C1974   1.491       .  S
C123        H126   1.083       .  S
O127       Cu135   2.008   1_565  S
O127        C137   1.277       .  A
O128       Cu135   2.008       .  S
O128        C138   1.277       .  A
O129       Cu135   1.992       .  S
O129        C139   1.276       .  A
O130       Cu135   1.988       .  S
O130        C140   1.274       .  A
O131       Cu136   2.028       .  S
O131        C140   1.280       .  A
O132       Cu136   2.025       .  S
O132        C139   1.278       .  A
O133       Cu136   2.019       .  S
O133        C138   1.278       .  A
O134       Cu136   2.020   1_565  S
O134        C137   1.278       .  A
Cu135      Cu136   2.373       .  S
C137       C2425   1.473       .  S
C138       C1991   1.472       .  S
C139       C2117   1.479       .  S
C140       C1949   1.484       .  S
C141        C142   1.408       .  A
C141        C146   1.405       .  A
C141       C1935   1.479       .  S
C142        C143   1.407       .  A
C142        H147   1.083       .  S
C143        C144   1.406       .  A
C143       C1918   1.492       .  S
C144        C145   1.396       .  A
C144        H148   1.084       .  S
C145        C146   1.399       .  A
C145       C1904   1.474       .  S
C146        H149   1.084       .  S
C150        C151   1.405       .  A
C150        C155   1.406       .  A
C150       C1932   1.479       .  S
C151        C152   1.403       .  A
C151        H156   1.084       .  S
C152        C153   1.402       .  A
C152       C1890   1.481       .  S
C153        C154   1.400       .  A
C153        H157   1.084   1_455  S
C154        C155   1.401       .  A
C154       C1879   1.476       .  S
C155        H158   1.084       .  S
C159        C160   1.410       .  A
C159        C164   1.408       .  A
C159       C1862   1.485       .  S
C160        C161   1.404       .  A
C160        H165   1.083       .  S
C161        C162   1.403   1_545  A
C161       C1834   1.493       .  S
C162        C163   1.404   1_565  A
C162        H166   1.084       .  S
C163        C164   1.405       .  A
C163       C1848   1.497       .  S
C164        H167   1.082       .  S
C168        C169   1.404       .  A
C168        C173   1.410       .  A
C168       C1865   1.482       .  S
C169        C170   1.397       .  A
C169        H174   1.084       .  S
C170        C171   1.396       .  A
C170       C1823   1.475       .  S
C171        C172   1.406       .  A
C171        H175   1.084       .  S
C172        C173   1.410       .  A
C172       C1946   1.496       .  S
C173        H176   1.083       .  S
O177       Cu185   2.038       .  S
O177        C187   1.282       .  A
O178       Cu185   2.039   1_455  S
O178        C188   1.282       .  A
O179       Cu185   2.015   1_565  S
O179        C189   1.277   1_655  A
O180       Cu185   2.012       .  S
O180        C190   1.276       .  A
O181       Cu186   2.012   1_655  S
O181        C190   1.278       .  A
O182       Cu186   2.013   1_565  S
O182        C189   1.278       .  A
O183       Cu186   1.983       .  S
O183        C188   1.275       .  A
O184       Cu186   1.982   1_655  S
O184        C187   1.273       .  A
Cu185      Cu186   2.373   1_655  S
C187       C2142   1.486       .  S
C188       C1837   1.483       .  S
C189       C2075   1.472       .  S
C190       C1907   1.471       .  S
C191        C192   1.407       .  A
C191        C196   1.413       .  A
C191       C1806   1.486       .  S
C192        C193   1.399       .  A
C192        H197   1.083       .  S
C193        C194   1.399       .  A
C193       C1792   1.485       .  S
C194        C195   1.406       .  A
C194        H198   1.084       .  S
C195        C196   1.408       .  A
C195       C1781   1.500       .  S
C196        H199   1.082       .  S
C200        C201   1.413       .  A
C200        C205   1.407       .  A
C200       C1809   1.483       .  S
C201        C202   1.409       .  A
C201        H206   1.082       .  S
C202        C203   1.405       .  A
C202       C1764   1.499       .  S
C203        C204   1.397       .  A
C203        H207   1.084       .  S
C204        C205   1.396       .  A
C204       C1750   1.483       .  S
C205        H208   1.084       .  S
O209       Cu217   2.018       .  S
O209        C219   1.278       .  A
O210       Cu217   2.020       .  S
O210        C220   1.278       .  A
O211       Cu217   2.034       .  S
O211        C221   1.281       .  A
O212       Cu217   2.035   1_455  S
O212        C222   1.281       .  A
O213       Cu218   1.987   1_455  S
O213        C222   1.275       .  A
O214       Cu218   1.982       .  S
O214        C221   1.275       .  A
O215       Cu218   2.006   1_455  S
O215        C220   1.278   1_455  A
O216       Cu218   2.001       .  S
O216        C219   1.277       .  A
Cu217      Cu218   2.372       .  S
C219       C1893   1.473       .  S
C220       C2047   1.476   1_655  S
C221       C2285   1.480       .  S
C222       C1778   1.485       .  S
O223       Cu231   1.975       .  S
O223        C233   1.272       .  A
O224       Cu231   1.987       .  S
O224        C234   1.275       .  A
O225       Cu231   2.006       .  S
O225        C235   1.277       .  A
O226       Cu231   2.008       .  S
O226        C236   1.278       .  A
O227       Cu232   2.019       .  S
O227        C236   1.277       .  A
O228       Cu232   2.020       .  S
O228        C235   1.278       .  A
O229       Cu232   2.033       .  S
O229        C234   1.281       .  A
O230       Cu232   2.042       .  S
O230        C233   1.282       .  A
Cu231      Cu232   2.370       .  S
C233       C1767   1.488       .  S
C234       C2257   1.479       .  S
C235       C2397   1.473       .  S
C236       C1977   1.483       .  S
C237        C238   1.407       .  A
C237        C242   1.409       .  A
C237       C1736   1.486       .  S
C238        C239   1.401       .  A
C238        H243   1.084       .  S
C239        C240   1.398       .  A
C239       C1725   1.474       .  S
C240        C241   1.400       .  A
C240        H244   1.084       .  S
C241        C242   1.403       .  A
C241       C1708   1.478       .  S
C242        H245   1.084       .  S
C246        C247   1.407       .  A
C246        C251   1.408       .  A
C246       C1739   1.485       .  S
C247        C248   1.402       .  A
C247        H252   1.084       .  S
C248        C249   1.399       .  A
C248       C1694   1.476       .  S
C249        C250   1.402       .  A
C249        H253   1.084       .  S
C250        C251   1.403       .  A
C250       C1680   1.480       .  S
C251        H254   1.084       .  S
O255       Cu263   2.005       .  S
O255        C265   1.277       .  A
O256       Cu263   2.009   1_554  S
O256        C266   1.277       .  A
O257       Cu263   1.982       .  S
O257        C267   1.275       .  A
O258       Cu263   1.991       .  S
O258        C268   1.276       .  A
O259       Cu264   2.029       .  S
O259        C268   1.280       .  A
O260       Cu264   2.033       .  S
O260        C267   1.281       .  A
O261       Cu264   2.013   1_554  S
O261        C266   1.277       .  A
O262       Cu264   2.013       .  S
O262        C265   1.277       .  A
Cu263      Cu264   2.374       .  S
C265       C2383   1.472       .  S
C266       C1711   1.471       .  S
C267       C1666   1.484       .  S
C268       C2187   1.478       .  S
C269        C270   1.413       .  A
C269        C274   1.408       .  A
C269       C1652   1.486       .  S
C270        C271   1.411       .  A
C270        H275   1.081       .  S
C271        C272   1.407       .  A
C271       C1638   1.509       .  S
C272        C273   1.399       .  A
C272        H276   1.083   1_556  S
C273        C274   1.400       .  A
C273       C1624   1.488       .  S
C274        H277   1.083       .  S
C278        C279   1.409       .  A
C278        C283   1.410       .  A
C278       C1655   1.484       .  S
C279        C280   1.402       .  A
C279        H284   1.083       .  S
C280        C281   1.400       .  A
C280       C1669   1.490       .  S
C281        C282   1.401       .  A
C281        H285   1.084   1_556  S
C282        C283   1.405       .  A
C282       C1613   1.489       .  S
C283        H286   1.083       .  S
C287        C288   1.407       .  A
C287        C292   1.407       .  A
C287       C1596   1.486       .  S
C288        C289   1.402       .  A
C288        H293   1.084       .  S
C289        C290   1.401       .  A
C289       C1585   1.480       .  S
C290        C291   1.403       .  A
C290        H294   1.084       .  S
C291        C292   1.403       .  A
C291       C1571   1.483       .  S
C292        H295   1.084       .  S
C296        C297   1.408       .  A
C296        C301   1.407       .  A
C296       C1599   1.486       .  S
C297        C298   1.402       .  A
C297        H302   1.084       .  S
C298        C299   1.400       .  A
C298       C1554   1.477       .  S
C299        C300   1.401       .  A
C299        H303   1.084       .  S
C300        C301   1.402       .  A
C300       C1540   1.479       .  S
C301        H304   1.084       .  S
O305       Cu313   2.031       .  S
O305        C315   1.281       .  A
O306       Cu313   2.022   1_455  S
O306        C316   1.277       .  A
O307       Cu313   2.031   1_454  S
O307        C317   1.280       .  A
O308       Cu313   2.031       .  S
O308        C318   1.280       .  A
O309       Cu314   1.991       .  S
O309        C318   1.276   1_455  A
O310       Cu314   1.992   1_554  S
O310        C317   1.274       .  A
O311       Cu314   1.995       .  S
O311        C316   1.279       .  A
O312       Cu314   1.988   1_655  S
O312        C315   1.274       .  A
Cu313      Cu314   2.370   1_655  S
C315       C2201   1.489       .  S
C316       C1627   1.485       .  S
C317       C1568   1.473   1_455  S
C318       C2061   1.476       .  S
C319        C320   1.405       .  A
C319        C324   1.407       .  A
C319       C1526   1.477       .  S
C320        C321   1.401       .  A
C320        H325   1.083       .  S
C321        C322   1.400       .  A
C321       C1515   1.487       .  S
C322        C323   1.403       .  A
C322        H326   1.084       .  S
C323        C324   1.406       .  A
C323       C1498   1.491       .  S
C324        H327   1.083       .  S
C328        C329   1.406       .  A
C328        C333   1.406       .  A
C328       C1529   1.483       .  S
C329        C330   1.404       .  A
C329        H334   1.083       .  S
C330        C331   1.405       .  A
C330       C1484   1.490       .  S
C331        C332   1.403       .  A
C331        H335   1.083       .  S
C332        C333   1.403       .  A
C332       C1470   1.489       .  S
C333        H336   1.084       .  S
O337       Cu345   1.999       .  S
O337        C347   1.275       .  A
O338       Cu345   1.999       .  S
O338        C348   1.276       .  A
O339       Cu345   1.991       .  S
O339        C349   1.278       .  A
O340       Cu345   1.994   1_455  S
O340        C350   1.277       .  A
O341       Cu346   2.025   1_455  S
O341        C350   1.279       .  A
O342       Cu346   2.026       .  S
O342        C349   1.279       .  A
O343       Cu346   2.026       .  S
O343        C348   1.279       .  A
O344       Cu346   2.023       .  S
O344        C347   1.279       .  A
Cu345      Cu346   2.374       .  S
C347       C1543   1.473       .  S
C348       C2030   1.471       .  S
C349       C2355   1.482       .  S
C350       C1501   1.480       .  S
O351       Cu359   2.016       .  S
O351        C361   1.278       .  A
O352       Cu359   2.023       .  S
O352        C362   1.278       .  A
O353       Cu359   2.023       .  S
O353        C363   1.279       .  A
O354       Cu359   2.020       .  S
O354        C364   1.278       .  A
O355       Cu360   2.001       .  S
O355        C364   1.276       .  A
O356       Cu360   1.992       .  S
O356        C363   1.276       .  A
O357       Cu360   1.994       .  S
O357        C362   1.277       .  A
O358       Cu360   1.995       .  S
O358        C361   1.277       .  A
Cu359      Cu360   2.373       .  S
C361       C2324   1.482       .  S
C362       C1473   1.479       .  S
C363       C1683   1.472       .  S
C364       C2408   1.471       .  S
C365        C366   1.406       .  A
C365        C370   1.407       .  A
C365       C1456   1.482       .  S
C366        C367   1.405       .  A
C366        H371   1.083       .  S
C367        C368   1.403       .  A
C367       C1445   1.484       .  S
C368        C369   1.402       .  A
C368        H372   1.084       .  S
C369        C370   1.406       .  A
C369       C1428   1.486       .  S
C370        H373   1.084       .  S
C374        C375   1.408       .  A
C374        C379   1.406       .  A
C374       C1459   1.482       .  S
C375        C376   1.406       .  A
C375        H380   1.084       .  S
C376        C377   1.403       .  A
C376       C1414   1.487       .  S
C377        C378   1.399       .  A
C377        H381   1.084       .  S
C378        C379   1.402       .  A
C378       C1403   1.478       .  S
C379        H382   1.084       .  S
O383       Cu391   2.004       .  S
O383        C393   1.277       .  A
O384       Cu391   2.004   1_565  S
O384        C394   1.277       .  A
O385       Cu391   1.989       .  S
O385        C395   1.276       .  A
O386       Cu391   1.988       .  S
O386        C396   1.276       .  A
O387       Cu392   2.025       .  S
O387        C396   1.280       .  A
O388       Cu392   2.028       .  S
O388        C395   1.279       .  A
O389       Cu392   2.017   1_565  S
O389        C394   1.278       .  A
O390       Cu392   2.023       .  S
O390        C393   1.279       .  A
Cu391      Cu392   2.373       .  S
C393       C1431   1.475       .  S
C394       C1697   1.471       .  S
C395       C1375   1.477       .  S
C396       C1389   1.478       .  S
O397       Cu405   2.018       .  S
O397        C407   1.277       .  A
O398       Cu405   2.018   1_554  S
O398        C408   1.277       .  A
O399       Cu405   2.039       .  S
O399        C409   1.282       .  A
O400       Cu405   2.028       .  S
O400        C410   1.280       .  A
O401       Cu406   1.989       .  S
O401        C410   1.275       .  A
O402       Cu406   1.978       .  S
O402        C409   1.273       .  A
O403       Cu406   2.011   1_554  S
O403        C408   1.278       .  A
O404       Cu406   2.013       .  S
O404        C407   1.278       .  A
Cu405      Cu406   2.373       .  S
C407       C1963   1.475       .  S
C408       C1400   1.473       .  S
C409       C1358   1.486       .  S
C410       C1347   1.477       .  S
C411        C412   1.409       .  A
C411        C416   1.410       .  A
C411       C1333   1.485       .  S
C412        C413   1.403       .  A
C412        H417   1.083       .  S
C413        C414   1.400       .  A
C413       C1316   1.491       .  S
C414        C415   1.404       .  A
C414        H418   1.084       .  S
C415        C416   1.406       .  A
C415       C1302   1.496       .  S
C416        H419   1.082       .  S
C420        C421   1.407       .  A
C420        C425   1.410       .  A
C420       C1330   1.483       .  S
C421        C422   1.402       .  A
C421        H426   1.083       .  S
C422        C423   1.400       .  A
C422       C1288   1.488       .  S
C423        C424   1.405       .  A
C423        H427   1.084       .  S
C424        C425   1.407       .  A
C424       C1274   1.498       .  S
C425        H428   1.082       .  S
O429       Cu437   2.025   1_455  S
O429        C439   1.279       .  A
O430       Cu437   2.020       .  S
O430        C440   1.279       .  A
O431       Cu437   2.034   1_455  S
O431        C441   1.281       .  A
O432       Cu437   2.037       .  S
O432        C442   1.281       .  A
O433       Cu438   1.982       .  S
O433        C442   1.274       .  A
O434       Cu438   1.981   1_455  S
O434        C441   1.274       .  A
O435       Cu438   2.000       .  S
O435        C440   1.277       .  A
O436       Cu438   2.002       .  S
O436        C439   1.276   1_655  A
Cu437      Cu438   2.370       .  S
C439       C1876   1.472       .  S
C440       C1260   1.480   1_655  S
C441       C1305   1.486       .  S
C442       C1246   1.487       .  S
O443       Cu451   2.012       .  S
O443        C453   1.277       .  A
O444       Cu451   2.017       .  S
O444        C454   1.278       .  A
O445       Cu451   2.031   1_565  S
O445        C455   1.281       .  A
O446       Cu451   2.031       .  S
O446        C456   1.281       .  A
O447       Cu452   1.981       .  S
O447        C456   1.274       .  A
O448       Cu452   1.988   1_565  S
O448        C455   1.275       .  A
O449       Cu452   1.999       .  S
O449        C454   1.277       .  A
O450       Cu452   2.000       .  S
O450        C453   1.276       .  A
Cu451      Cu452   2.372       .  S
C453       C1820   1.467       .  S
C454       C1232   1.478       .  S
C455       C1487   1.481       .  S
C456       C1277   1.484       .  S
C457        C458   1.409       .  A
C457        C462   1.407       .  A
C457       C1218   1.479       .  S
C458        C459   1.404       .  A
C458        H463   1.083       .  S
C459        C460   1.404       .  A
C459       C1204   1.496       .  S
C460        C461   1.401       .  A
C460        H464   1.082       .  S
C461        C462   1.402       .  A
C461       C1190   1.492       .  S
C462        H465   1.083       .  S
C466        C467   1.410       .  A
C466        C471   1.406       .  A
C466       C1221   1.483       .  S
C467        C468   1.408       .  A
C467        H472   1.082       .  S
C468        C469   1.406   1_556  A
C468       C1361   1.499       .  S
C469        C470   1.399   1_554  A
C469        H473   1.083       .  S
C470        C471   1.399       .  A
C470       C1176   1.486       .  S
C471        H474   1.083       .  S
C475        C476   1.408       .  A
C475        C480   1.410       .  A
C475       C1162   1.485       .  S
C476        C477   1.403       .  A
C476        H481   1.083       .  S
C477        C478   1.400       .  A
C477       C1148   1.489       .  S
C478        C479   1.402       .  A
C478        H482   1.084       .  S
C479        C480   1.405       .  A
C479       C1134   1.494       .  S
C480        H483   1.083       .  S
C484        C485   1.408   1_565  A
C484        C489   1.409   1_565  A
C484       C1165   1.485       .  S
C485        C486   1.403       .  A
C485        H490   1.083   1_545  S
C486        C487   1.402       .  A
C486       C1386   1.489       .  S
C487        C488   1.401       .  A
C487        H491   1.084       .  S
C488        C489   1.403       .  A
C488       C1235   1.486       .  S
C489        H492   1.083   1_545  S
C493        C494   1.405       .  A
C493        C498   1.406       .  A
C493       C1123   1.476       .  S
C494        C495   1.405       .  A
C494        H499   1.084       .  S
C495        C496   1.403       .  A
C495       C1109   1.489       .  S
C496        C497   1.403       .  A
C496        H500   1.084       .  S
C497        C498   1.404       .  A
C497       C1095   1.486   1_455  S
C498        H501   1.084   1_455  S
C502        C503   1.404       .  A
C502        C507   1.406       .  A
C502       C1120   1.476   1_655  S
C503        C504   1.400       .  A
C503        H508   1.084       .  S
C504        C505   1.400       .  A
C504       C1078   1.477       .  S
C505        C506   1.406       .  A
C505        H509   1.084       .  S
C506        C507   1.408       .  A
C506       C1263   1.493       .  S
C507        H510   1.083   1_655  S
O511       Cu519   1.991       .  S
O511        C521   1.277       .  A
O512       Cu519   1.998   1_655  S
O512        C522   1.277       .  A
O513       Cu519   1.994       .  S
O513        C523   1.276       .  A
O514       Cu519   1.999   1_665  S
O514        C524   1.276       .  A
O515       Cu520   2.020   1_665  S
O515        C524   1.279       .  A
O516       Cu520   2.025       .  S
O516        C523   1.279       .  A
O517       Cu520   2.020   1_655  S
O517        C522   1.278       .  A
O518       Cu520   2.023       .  S
O518        C521   1.279       .  A
Cu519      Cu520   2.374       .  S
C521       C1151   1.480       .  S
C522       C1067   1.473       .  S
C523       C1106   1.477       .  S
C524       C1582   1.474       .  S
O525       Cu533   1.983   1_565  S
O525        C535   1.274       .  A
O526       Cu533   1.985       .  S
O526        C536   1.276       .  A
O527       Cu533   1.984       .  S
O527        C537   1.274       .  A
O528       Cu533   1.981   1_554  S
O528        C538   1.274       .  A
O529       Cu534   2.028   1_554  S
O529        C538   1.280       .  A
O530       Cu534   2.036       .  S
O530        C537   1.281       .  A
O531       Cu534   2.024       .  S
O531        C536   1.279       .  A
O532       Cu534   2.023   1_565  S
O532        C535   1.280       .  A
Cu533      Cu534   2.367       .  S
C535       C1641   1.488       .  S
C536       C1193   1.476       .  S
C537       C1851   1.486       .  S
C538       C1137   1.481       .  S
O539       Cu547   2.028       .  S
O539        C549   1.280       .  A
O540       Cu547   2.034   1_455  S
O540        C550   1.281       .  A
O541       Cu547   2.029       .  S
O541        C551   1.279       .  A
O542       Cu547   2.028   1_454  S
O542        C552   1.279   1_455  A
O543       Cu548   1.994   1_554  S
O543        C552   1.276       .  A
O544       Cu548   1.993       .  S
O544        C551   1.277       .  A
O545       Cu548   1.995   1_455  S
O545        C550   1.274       .  A
O546       Cu548   1.983       .  S
O546        C549   1.275       .  A
Cu547      Cu548   2.370       .  S
C549       C1050   1.476       .  S
C550       C1207   1.490       .  S
C551       C1921   1.482       .  S
C552       C1092   1.478       .  S
C553        C554   1.403       .  A
C553        C558   1.401       .  A
C553       C1036   1.471       .  S
C554        C555   1.408       .  A
C554        H559   1.082       .  S
C555        C556   1.409       .  A
C555       C1022   1.500       .  S
C556        C557   1.405       .  A
C556        H560   1.082       .  S
C557        C558   1.398       .  A
C557       C1008   1.483       .  S
C558        H561   1.084       .  S
C562        C563   1.403       .  A
C562        C567   1.402       .  A
C562       C1039   1.471       .  S
C563        C564   1.403       .  A
C563        H568   1.084       .  S
C564        C565   1.404       .  A
C564        C994   1.486       .  S
C565        C566   1.403       .  A
C565        H569   1.084       .  S
C566        C567   1.401       .  A
C566        C980   1.482       .  S
C567        H570   1.084       .  S
O571       Cu579   2.003       .  S
O571        C581   1.276       .  A
O572       Cu579   2.002       .  S
O572        C582   1.276       .  A
O573       Cu579   1.995       .  S
O573        C583   1.277       .  A
O574       Cu579   1.995   1_655  S
O574        C584   1.277       .  A
O575       Cu580   2.024   1_655  S
O575        C584   1.280       .  A
O576       Cu580   2.026       .  S
O576        C583   1.278       .  A
O577       Cu580   2.028   1_655  S
O577        C582   1.279   1_655  A
O578       Cu580   2.023       .  S
O578        C581   1.279       .  A
Cu579      Cu580   2.372       .  S
C581       C1557   1.472       .  S
C582       C1081   1.474       .  S
C583       C1011   1.480       .  S
C584        C966   1.483       .  S
O585       Cu593   1.992       .  S
O585        C595   1.277       .  A
O586       Cu593   1.984       .  S
O586        C596   1.275       .  A
O587       Cu593   1.991       .  S
O587        C597   1.276       .  A
O588       Cu593   1.990   1_554  S
O588        C598   1.276       .  A
O589       Cu594   2.021   1_554  S
O589        C598   1.279       .  A
O590       Cu594   2.024       .  S
O590        C597   1.279       .  A
O591       Cu594   2.023       .  S
O591        C596   1.279       .  A
O592       Cu594   2.028       .  S
O592        C595   1.280       .  A
Cu593      Cu594   2.373       .  S
C595       C1610   1.482       .  S
C596       C1179   1.476       .  S
C597       C1753   1.479       .  S
C598        C983   1.473       .  S
O599       Cu607   1.991       .  S
O599        C609   1.276       .  A
O600       Cu607   1.990       .  S
O600        C610   1.276       .  A
O601       Cu607   1.986       .  S
O601        C611   1.276       .  A
O602       Cu607   1.990       .  S
O602        C612   1.277       .  A
O603       Cu608   2.029       .  S
O603        C612   1.279       .  A
O604       Cu608   2.029       .  S
O604        C611   1.280       .  A
O605       Cu608   2.024       .  S
O605        C610   1.279       .  A
O606       Cu608   2.035       .  S
O606        C609   1.281       .  A
Cu607      Cu608   2.371       .  S
C609       C1512   1.483       .  S
C610       C1319   1.479       .  S
C611       C1795   1.477       .  S
C612       C1025   1.488       .  S
O613       Cu621   1.991       .  S
O613        C623   1.277       .  A
O614       Cu621   1.994       .  S
O614        C624   1.276       .  A
O615       Cu621   1.999       .  S
O615        C625   1.276       .  A
O616       Cu621   2.000       .  S
O616        C626   1.275       .  A
O617       Cu622   2.025       .  S
O617        C626   1.279       .  A
O618       Cu622   2.023       .  S
O618        C625   1.279       .  A
O619       Cu622   2.020       .  S
O619        C624   1.279       .  A
O620       Cu622   2.026       .  S
O620        C623   1.279       .  A
Cu621      Cu622   2.371       .  S
C623       C1291   1.477       .  S
C624        C952   1.487       .  S
C625       C2005   1.475       .  S
C626       C1442   1.476       .  S
O627       Cu635   2.028       .  S
O627        C637   1.280       .  A
O628       Cu635   2.022       .  S
O628        C638   1.279       .  A
O629       Cu635   2.020       .  S
O629        C639   1.278       .  A
O630       Cu635   2.019       .  S
O630        C640   1.278       .  A
O631       Cu636   2.006       .  S
O631        C640   1.278       .  A
O632       Cu636   1.998       .  S
O632        C639   1.276       .  A
O633       Cu636   1.999       .  S
O633        C638   1.277       .  A
O634       Cu636   1.987       .  S
O634        C637   1.275       .  A
Cu635      Cu636   2.375       .  S
C637        C997   1.478       .  S
C638        C938   1.479       .  S
C639       C1722   1.469       .  S
C640       C1417   1.477       .  S
C641        C642   1.409       .  A
C641        C646   1.405       .  A
C641        C924   1.484       .  S
C642        C643   1.407       .  A
C642        H647   1.083       .  S
C643        C644   1.403       .  A
C643        C941   1.490       .  S
C644        C645   1.402       .  A
C644        H648   1.083       .  S
C645        C646   1.402       .  A
C645        C910   1.488       .  S
C646        H649   1.084       .  S
C650        C651   1.413       .  A
C650        C655   1.408       .  A
C650        C927   1.490       .  S
C651        C652   1.409       .  A
C651        H656   1.083       .  S
C652        C653   1.403       .  A
C652        C969   1.495       .  S
C653        C654   1.399       .  A
C653        H657   1.084       .  S
C654        C655   1.400       .  A
C654        C899   1.485       .  S
C655        H658   1.083       .  S
O659       Cu667   2.025       .  S
O659        C669   1.280       .  A
O660       Cu667   2.026       .  S
O660        C670   1.279       .  A
O661       Cu667   2.020       .  S
O661        C671   1.279       .  A
O662       Cu667   2.019   1_554  S
O662        C672   1.278       .  A
O663       Cu668   1.993   1_554  S
O663        C672   1.277       .  A
O664       Cu668   2.001       .  S
O664        C671   1.277       .  A
O665       Cu668   1.984       .  S
O665        C670   1.275       .  A
O666       Cu668   1.995       .  S
O666        C669   1.276       .  A
Cu667      Cu668   2.372       .  S
C669       C2173   1.482       .  S
C670        C885   1.474       .  S
C671       C2243   1.477       .  S
C672        C913   1.481       .  S
C673        C674   1.406       .  A
C673        C678   1.408       .  A
C673        C871   1.479       .  S
C674        C675   1.401       .  A
C674        H679   1.083       .  S
C675        C676   1.401       .  A
C675       C1053   1.485       .  S
C676        C677   1.403       .  A
C676        H680   1.084       .  S
C677        C678   1.404       .  A
C677        C854   1.490       .  S
C678        H681   1.083       .  S
C682        C683   1.406       .  A
C682        C687   1.406       .  A
C682        C868   1.481       .  S
C683        C684   1.403       .  A
C683        H688   1.083       .  S
C684        C685   1.403       .  A
C684       C1344   1.487       .  S
C685        C686   1.403       .  A
C685        H689   1.084       .  S
C686        C687   1.401       .  A
C686        C882   1.485       .  S
C687        H690   1.083       .  S
C691        C692   1.407       .  A
C691        C696   1.410       .  A
C691        C840   1.486       .  S
C692        C693   1.399       .  A
C692        H697   1.084       .  S
C693        C694   1.400       .  A
C693       C1064   1.482       .  S
C694        C695   1.406       .  A
C694        H698   1.083       .  S
C695        C696   1.406       .  A
C695        C829   1.495       .  S
C696        H699   1.083       .  S
C700        C701   1.408       .  A
C700        C705   1.409       .  A
C700        C843   1.485       .  S
C701        C702   1.403       .  A
C701        H706   1.083       .  S
C702        C703   1.403       .  A
C702       C1372   1.488       .  S
C703        C704   1.403       .  A
C703        H707   1.083       .  S
C704        C705   1.404       .  A
C704        C815   1.493       .  S
C705        H708   1.083       .  S
O709       Cu717   1.983       .  S
O709        C719   1.275       .  A
O710       Cu717   1.982   1_554  S
O710        C720   1.275       .  A
O711       Cu717   1.997   1_565  S
O711        C721   1.277       .  A
O712       Cu717   2.000       .  S
O712        C722   1.277       .  A
O713       Cu718   2.023       .  S
O713        C722   1.279       .  A
O714       Cu718   2.024   1_565  S
O714        C721   1.279       .  A
O715       Cu718   2.037   1_554  S
O715        C720   1.281       .  A
O716       Cu718   2.037       .  S
O716        C719   1.281       .  A
Cu717      Cu718   2.372       .  S
C719       C2128   1.481       .  S
C720        C826   1.482       .  S
C721       C2215   1.479       .  S
C722        C857   1.480       .  S
C723        C724   1.412       .  A
C723        C728   1.408       .  A
C723        C798   1.483       .  S
C724        C725   1.406       .  A
C724        H729   1.082       .  S
C725        C726   1.401       .  A
C725        C955   1.497       .  S
C726        C727   1.401       .  A
C726        H730   1.084       .  S
C727        C728   1.402       .  A
C727        C784   1.487       .  S
C728        H731   1.083       .  S
C732        C733   1.408       .  A
C732        C737   1.412       .  A
C732        C801   1.485       .  S
C733        C734   1.400       .  A
C733        H738   1.083       .  S
C734        C735   1.400       .  A
C734        C770   1.490       .  S
C735        C736   1.404       .  A
C735        H739   1.084       .  S
C736        C737   1.407       .  A
C736       C1249   1.495       .  S
C737        H740   1.082       .  S
O741       Cu749   1.982       .  S
O741        C751   1.275       .  A
O742       Cu749   1.981       .  S
O742        C752   1.272       .  A
O743       Cu749   1.983       .  S
O743        C753   1.274       .  A
O744       Cu749   1.983   1_565  S
O744        C754   1.276       .  A
O745       Cu750   2.026   1_565  S
O745        C754   1.279       .  A
O746       Cu750   2.030       .  S
O746        C753   1.280       .  A
O747       Cu750   2.038       .  S
O747        C752   1.282       .  A
O748       Cu750   2.035       .  S
O748        C751   1.281       .  A
Cu749      Cu750   2.368       .  S
C751        C812   1.483       .  S
C752       C2100   1.485       .  S
C753        C787   1.481       .  S
C754       C2313   1.480       .  S
O755       Cu763   2.029       .  S
O755        C765   1.280       .  A
O756       Cu763   2.033       .  S
O756        C766   1.281       .  A
O757       Cu763   2.022       .  S
O757        C767   1.279       .  A
O758       Cu763   2.022       .  S
O758        C768   1.279       .  A
O759       Cu764   1.990       .  S
O759        C768   1.276       .  A
O760       Cu764   1.992       .  S
O760        C767   1.277       .  A
O761       Cu764   1.978       .  S
O761        C766   1.274       .  A
O762       Cu764   1.979       .  S
O762        C765   1.275       .  A
Cu763      Cu764   2.372       .  S
C765       C2341   1.479       .  S
C766        C773   1.482       .  S
C767       C2268   1.479       .  S
C768        C896   1.475       .  S
C769        C770   1.404       .  A
C769        C774   1.393       .  A
C769        H776   1.084       .  S
C770        C771   1.419       .  A
C771        C772   1.411       .  A
C771        N778   1.438       .  S
C772        C773   1.406       .  A
C772        H777   1.083       .  S
C773        C774   1.414       .  A
C774        N775   1.436       .  S
N775        O779   1.263       .  A
N775        O780   1.263       .  A
N778        O781   1.263       .  A
N778        O782   1.262       .  A
C783        C784   1.402       .  A
C783        C788   1.389       .  A
C783        H790   1.084       .  S
C784        C785   1.417       .  A
C785        C786   1.413       .  A
C785        N792   1.439       .  S
C786        C787   1.408       .  A
C786        H791   1.083       .  S
C787        C788   1.412       .  A
C788        N789   1.432       .  S
N789        O793   1.261       .  A
N789        O794   1.262       .  A
N792        O795   1.263       .  A
N792        O796   1.262       .  A
C797        C798   1.406       .  A
C797        C802   1.409       .  A
C797        H804   1.083       .  S
C798        C799   1.412       .  A
C799        C800   1.396       .  A
C799        N806   1.437       .  S
C800        C801   1.403       .  A
C800        H805   1.084       .  S
C801        C802   1.417       .  A
C802        N803   1.440       .  S
N803        O807   1.263       .  A
N803        O808   1.263       .  A
N806        O809   1.263       .  A
N806        O810   1.263       .  A
C811        C812   1.403       .  A
C811        C816   1.397       .  A
C811        H818   1.084       .  S
C812        C813   1.416       .  A
C813        C814   1.410       .  A
C813        N820   1.436   1_545  S
C814        C815   1.408       .  A
C814        H819   1.083   1_545  S
C815        C816   1.416       .  A
C816        N817   1.438       .  S
N817        O821   1.263       .  A
N817        O822   1.262       .  A
N820        O823   1.262       .  A
N820        O824   1.263       .  A
C825        C826   1.400       .  A
C825        C830   1.393       .  A
C825        H832   1.080       .  S
C826        C827   1.416   1_545  A
C827        C828   1.412       .  A
C827        N834   1.438       .  S
C828        C829   1.410   1_565  A
C828        H833   1.083       .  S
C829        C830   1.414       .  A
C830        N831   1.436       .  S
N831        O835   1.263       .  A
N831        O836   1.262       .  A
N834        O837   1.263       .  A
N834        O838   1.263       .  A
C839        C840   1.404       .  A
C839        C844   1.401   1_545  A
C839        H846   1.084   1_545  S
C840        C841   1.417       .  A
C841        C842   1.405       .  A
C841        N848   1.439       .  S
C842        C843   1.405       .  A
C842        H847   1.083       .  S
C843        C844   1.416   1_545  A
C844        N845   1.439       .  S
N845        O849   1.263       .  A
N845        O850   1.263       .  A
N848        O851   1.263       .  A
N848        O852   1.263       .  A
C853        C854   1.404   1_554  A
C853        C858   1.395       .  A
C853        H860   1.083       .  S
C854        C855   1.418       .  A
C855        C856   1.409       .  A
C855        N862   1.436       .  S
C856        C857   1.404       .  A
C856        H861   1.083       .  S
C857        C858   1.410   1_556  A
C858        N859   1.434       .  S
N859        O863   1.263       .  A
N859        O864   1.260       .  A
N862        O865   1.262       .  A
N862        O866   1.263       .  A
C867        C868   1.403       .  A
C867        C872   1.402       .  A
C867        H874   1.084       .  S
C868        C869   1.416   1_556  A
C869        C870   1.403       .  A
C869        N876   1.440       .  S
C870        C871   1.403   1_554  A
C870        H875   1.084       .  S
C871        C872   1.414       .  A
C872        N873   1.438       .  S
N873        O877   1.263       .  A
N873        O878   1.263       .  A
N876        O879   1.263       .  A
N876        O880   1.263       .  A
C881        C882   1.407       .  A
C881        C886   1.408       .  A
C881        H888   1.083       .  S
C882        C883   1.414   1_556  A
C883        C884   1.398       .  A
C883        N890   1.441       .  S
C884        C885   1.403   1_554  A
C884        H889   1.084       .  S
C885        C886   1.415       .  A
C886        N887   1.440       .  S
N887        O891   1.263       .  A
N887        O892   1.262       .  A
N890        O893   1.263       .  A
N890        O894   1.263       .  A
C895        C896   1.401       .  A
C895        C900   1.398       .  A
C895        H902   1.084       .  S
C896        C897   1.416       .  A
C897        C898   1.407       .  A
C897        N904   1.438       .  S
C898        C899   1.405       .  A
C898        H903   1.083       .  S
C899        C900   1.416       .  A
C900        N901   1.440       .  S
N901        O905   1.263       .  A
N901        O906   1.263       .  A
N904        O907   1.262       .  A
N904        O908   1.263       .  A
C909        C910   1.406       .  A
C909        C914   1.404       .  A
C909        H916   1.083       .  S
C910        C911   1.416       .  A
C911        C912   1.400       .  A
C911        N918   1.440       .  S
C912        C913   1.404       .  A
C912        H917   1.084       .  S
C913        C914   1.413       .  A
C914        N915   1.433       .  S
N915        O919   1.262       .  A
N915        O920   1.262       .  A
N918        O921   1.263       .  A
N918        O922   1.263       .  A
C923        C924   1.403       .  A
C923        C928   1.403       .  A
C923        H930   1.084       .  S
C924        C925   1.413       .  A
C925        C926   1.404       .  A
C925        N932   1.437       .  S
C926        C927   1.407       .  A
C926        H931   1.083       .  S
C927        C928   1.415       .  A
C928        N929   1.435       .  S
N929        O933   1.263       .  A
N929        O934   1.262       .  A
N932        O935   1.262       .  A
N932        O936   1.263       .  A
C937        C938   1.403       .  A
C937        C942   1.406       .  A
C937        H944   1.083       .  S
C938        C939   1.415       .  A
C939        C940   1.401       .  A
C939        N946   1.440       .  S
C940        C941   1.405       .  A
C940        H945   1.083       .  S
C941        C942   1.416       .  A
C942        N943   1.435       .  S
N943        O947   1.262       .  A
N943        O948   1.262       .  A
N946        O949   1.262       .  A
N946        O950   1.263       .  A
C951        C952   1.407       .  A
C951        C956   1.409       .  A
C951        H958   1.083       .  S
C952        C953   1.412       .  A
C953        C954   1.394       .  A
C953        N960   1.431       .  S
C954        C955   1.408       .  A
C954        H959   1.084       .  S
C955        C956   1.417       .  A
C956        N957   1.434       .  S
N957        O961   1.262       .  A
N957        O962   1.263       .  A
N960        O963   1.263       .  A
N960        O964   1.262       .  A
C965        C966   1.405       .  A
C965        C970   1.410       .  A
C965        H972   1.083       .  S
C966        C967   1.410       .  A
C967        C968   1.394       .  A
C967        N974   1.430       .  S
C968        C969   1.407       .  A
C968        H973   1.083       .  S
C969        C970   1.418       .  A
C970        N971   1.434       .  S
N971        O975   1.262       .  A
N971        O976   1.263       .  A
N974        O977   1.262       .  A
N974        O978   1.262       .  A
C979        C980   1.405       .  A
C979        C984   1.406       .  A
C979        H986   1.084       .  S
C980        C981   1.414       .  A
C981        C982   1.401       .  A
C981        N988   1.441       .  S
C982        C983   1.403       .  A
C982        H987   1.084       .  S
C983        C984   1.414       .  A
C984        N985   1.439       .  S
N985        O989   1.263       .  A
N985        O990   1.263       .  A
N988        O991   1.263       .  A
N988        O992   1.263       .  A
C993        C994   1.406       .  A
C993        C998   1.407       .  A
C993       H1000   1.083       .  S
C994        C995   1.415       .  A
C995        C996   1.399       .  A
C995       N1002   1.440       .  S
C996        C997   1.403       .  A
C996       H1001   1.084       .  S
C997        C998   1.414       .  A
C998        N999   1.438       .  S
N999       O1003   1.263       .  A
N999       O1004   1.263       .  A
N1002      O1005   1.263       .  A
N1002      O1006   1.263       .  A
C1007      C1008   1.403       .  A
C1007      C1012   1.412       .  A
C1007      H1014   1.083       .  S
C1008      C1009   1.410       .  A
C1009      C1010   1.395       .  A
C1009      N1016   1.439       .  S
C1010      C1011   1.401       .  A
C1010      H1015   1.082       .  S
C1011      C1012   1.422       .  A
C1012      N1013   1.440       .  S
N1013      O1017   1.263       .  A
N1013      O1018   1.261       .  A
N1016      O1019   1.263       .  A
N1016      O1020   1.263       .  A
C1021      C1022   1.408       .  A
C1021      C1026   1.407       .  A
C1021      H1028   1.082       .  S
C1022      C1023   1.415       .  A
C1023      C1024   1.397       .  A
C1023      N1030   1.434       .  S
C1024      C1025   1.404       .  A
C1024      H1029   1.084       .  S
C1025      C1026   1.418       .  A
C1026      N1027   1.435       .  S
N1027      O1031   1.263       .  A
N1027      O1032   1.259       .  A
N1030      O1033   1.262       .  A
N1030      O1034   1.263       .  A
C1035      C1036   1.400       .  A
C1035      C1040   1.406       .  A
C1035      H1042   1.083       .  S
C1036      C1037   1.413       .  A
C1037      C1038   1.402       .  A
C1037      N1044   1.444       .  S
C1038      C1039   1.402       .  A
C1038      H1043   1.084       .  S
C1039      C1040   1.420       .  A
C1040      N1041   1.449       .  S
N1041      O1045   1.263       .  A
N1041      O1046   1.262       .  A
N1044      O1047   1.262       .  A
N1044      O1048   1.263       .  A
C1049      C1050   1.402   1_554  A
C1049      C1054   1.397       .  A
C1049      H1056   1.083       .  S
C1050      C1051   1.416       .  A
C1051      C1052   1.408       .  A
C1051      N1058   1.438       .  S
C1052      C1053   1.405       .  A
C1052      H1057   1.083       .  S
C1053      C1054   1.415   1_556  A
C1054      N1055   1.440       .  S
N1055      O1059   1.263       .  A
N1055      O1060   1.263       .  A
N1058      O1061   1.262       .  A
N1058      O1062   1.263       .  A
C1063      C1064   1.403   1_565  A
C1063      C1068   1.409       .  A
C1063      H1070   1.083       .  S
C1064      C1065   1.413       .  A
C1065      C1066   1.400       .  A
C1065      N1072   1.439       .  S
C1066      C1067   1.401       .  A
C1066      H1071   1.084       .  S
C1067      C1068   1.417   1_545  A
C1068      N1069   1.440       .  S
N1069      O1073   1.263       .  A
N1069      O1074   1.262       .  A
N1072      O1075   1.263       .  A
N1072      O1076   1.263       .  A
C1077      C1078   1.401   1_455  A
C1077      C1082   1.400       .  A
C1077      H1084   1.084       .  S
C1078      C1079   1.419       .  A
C1079      C1080   1.411       .  A
C1079      N1086   1.444       .  S
C1080      C1081   1.403   1_655  A
C1080      H1085   1.084       .  S
C1081      C1082   1.409       .  A
C1082      N1083   1.436       .  S
N1083      O1087   1.263       .  A
N1083      O1088   1.262       .  A
N1086      O1089   1.262       .  A
N1086      O1090   1.263       .  A
C1091      C1092   1.404   1_455  A
C1091      C1096   1.411       .  A
C1091      H1098   1.083       .  S
C1092      C1093   1.410       .  A
C1093      C1094   1.396       .  A
C1093      N1100   1.432       .  S
C1094      C1095   1.404       .  A
C1094      H1099   1.084       .  S
C1095      C1096   1.419   1_655  A
C1096      N1097   1.439       .  S
N1097      O1101   1.262       .  A
N1097      O1102   1.263       .  A
N1100      O1103   1.262       .  A
N1100      O1104   1.262       .  A
C1105      C1106   1.403   1_655  A
C1105      C1110   1.409       .  A
C1105      H1112   1.083       .  S
C1106      C1107   1.408       .  A
C1107      C1108   1.396       .  A
C1107      N1114   1.430       .  S
C1108      C1109   1.405       .  A
C1108      H1113   1.084       .  S
C1109      C1110   1.420   1_455  A
C1110      N1111   1.438       .  S
N1111      O1115   1.262       .  A
N1111      O1116   1.263       .  A
N1114      O1117   1.262       .  A
N1114      O1118   1.262       .  A
C1119      C1120   1.402   1_655  A
C1119      C1124   1.405       .  A
C1119      H1126   1.084       .  S
C1120      C1121   1.416       .  A
C1121      C1122   1.407       .  A
C1121      N1128   1.443       .  S
C1122      C1123   1.402       .  A
C1122      H1127   1.084       .  S
C1123      C1124   1.415   1_455  A
C1124      N1125   1.443       .  S
N1125      O1129   1.263       .  A
N1125      O1130   1.262       .  A
N1128      O1131   1.262       .  A
N1128      O1132   1.263       .  A
C1133      C1134   1.406   1_565  A
C1133      C1138   1.391       .  A
C1133      H1140   1.084       .  S
C1134      C1135   1.419       .  A
C1135      C1136   1.410       .  A
C1135      N1142   1.434       .  S
C1136      C1137   1.405       .  A
C1136      H1141   1.083       .  S
C1137      C1138   1.410   1_545  A
C1138      N1139   1.431       .  S
N1139      O1143   1.262       .  A
N1139      O1144   1.262       .  A
N1142      O1145   1.263       .  A
N1142      O1146   1.262       .  A
C1147      C1148   1.405   1_565  A
C1147      C1152   1.396       .  A
C1147      H1154   1.084       .  S
C1148      C1149   1.417       .  A
C1149      C1150   1.410       .  A
C1149      N1156   1.438       .  S
C1150      C1151   1.406       .  A
C1150      H1155   1.084       .  S
C1151      C1152   1.413   1_545  A
C1152      N1153   1.439       .  S
N1153      O1157   1.263       .  A
N1153      O1158   1.262       .  A
N1156      O1159   1.262       .  A
N1156      O1160   1.263       .  A
C1161      C1162   1.405   1_565  A
C1161      C1166   1.407       .  A
C1161      H1168   1.083       .  S
C1162      C1163   1.414       .  A
C1163      C1164   1.400       .  A
C1163      N1170   1.437       .  S
C1164      C1165   1.403   1_545  A
C1164      H1169   1.084       .  S
C1165      C1166   1.417       .  A
C1166      N1167   1.440       .  S
N1167      O1171   1.263       .  A
N1167      O1172   1.263       .  A
N1170      O1173   1.263       .  A
N1170      O1174   1.263       .  A
C1175      C1176   1.405       .  A
C1175      C1180   1.397       .  A
C1175      H1182   1.084       .  S
C1176      C1177   1.416   1_556  A
C1177      C1178   1.407       .  A
C1177      N1184   1.436       .  S
C1178      C1179   1.404   1_554  A
C1178      H1183   1.084       .  S
C1179      C1180   1.413       .  A
C1180      N1181   1.440       .  S
N1181      O1185   1.263       .  A
N1181      O1186   1.263       .  A
N1184      O1187   1.262       .  A
N1184      O1188   1.263       .  A
C1189      C1190   1.406   1_554  A
C1189      C1194   1.395       .  A
C1189      H1196   1.084       .  S
C1190      C1191   1.418       .  A
C1191      C1192   1.407       .  A
C1191      N1198   1.433       .  S
C1192      C1193   1.402       .  A
C1192      H1197   1.084       .  S
C1193      C1194   1.411   1_556  A
C1194      N1195   1.436       .  S
N1195      O1199   1.262       .  A
N1195      O1200   1.263       .  A
N1198      O1201   1.262       .  A
N1198      O1202   1.262       .  A
C1203      C1204   1.403       .  A
C1203      C1208   1.394       .  A
C1203      H1210   1.083       .  S
C1204      C1205   1.418       .  A
C1205      C1206   1.411       .  A
C1205      N1212   1.437   1_556  S
C1206      C1207   1.408       .  A
C1206      H1211   1.084   1_556  S
C1207      C1208   1.419       .  A
C1208      N1209   1.436       .  S
N1209      O1213   1.263       .  A
N1209      O1214   1.262       .  A
N1212      O1215   1.263       .  A
N1212      O1216   1.263       .  A
C1217      C1218   1.401   1_554  A
C1217      C1222   1.400       .  A
C1217      H1224   1.084       .  S
C1218      C1219   1.415       .  A
C1219      C1220   1.405       .  A
C1219      N1226   1.438       .  S
C1220      C1221   1.403       .  A
C1220      H1225   1.083       .  S
C1221      C1222   1.416   1_556  A
C1222      N1223   1.438       .  S
N1223      O1227   1.263       .  A
N1223      O1228   1.263       .  A
N1226      O1229   1.262       .  A
N1226      O1230   1.263       .  A
C1231      C1232   1.401   1_565  A
C1231      C1236   1.399       .  A
C1231      H1238   1.084       .  S
C1232      C1233   1.417       .  A
C1233      C1234   1.408       .  A
C1233      N1240   1.438       .  S
C1234      C1235   1.404       .  A
C1234      H1239   1.083       .  S
C1235      C1236   1.417   1_545  A
C1236      N1237   1.440       .  S
N1237      O1241   1.263       .  A
N1237      O1242   1.263       .  A
N1240      O1243   1.263       .  A
N1240      O1244   1.263       .  A
C1245      C1246   1.408       .  A
C1245      C1250   1.414       .  A
C1245      H1252   1.083       .  S
C1246      C1247   1.412       .  A
C1247      C1248   1.390       .  A
C1247      N1254   1.431       .  S
C1248      C1249   1.405       .  A
C1248      H1253   1.084       .  S
C1249      C1250   1.420       .  A
C1250      N1251   1.437       .  S
N1251      O1255   1.262       .  A
N1251      O1256   1.263       .  A
N1254      O1257   1.263       .  A
N1254      O1258   1.262       .  A
C1259      C1260   1.404   1_655  A
C1259      C1264   1.408       .  A
C1259      H1266   1.083       .  S
C1260      C1261   1.413       .  A
C1261      C1262   1.400       .  A
C1261      N1268   1.439       .  S
C1262      C1263   1.406   1_455  A
C1262      H1267   1.083       .  S
C1263      C1264   1.419       .  A
C1264      N1265   1.438       .  S
N1265      O1269   1.263       .  A
N1265      O1270   1.263       .  A
N1268      O1271   1.263       .  A
N1268      O1272   1.263       .  A
C1273      C1274   1.407       .  A
C1273      C1278   1.392       .  A
C1273      H1280   1.083       .  S
C1274      C1275   1.420       .  A
C1275      C1276   1.410       .  A
C1275      N1282   1.434       .  S
C1276      C1277   1.406       .  A
C1276      H1281   1.083       .  S
C1277      C1278   1.411       .  A
C1278      N1279   1.431       .  S
N1279      O1283   1.261       .  A
N1279      O1284   1.263       .  A
N1282      O1285   1.263       .  A
N1282      O1286   1.262       .  A
C1287      C1288   1.405       .  A
C1287      C1292   1.397       .  A
C1287      H1294   1.084       .  S
C1288      C1289   1.417       .  A
C1289      C1290   1.411       .  A
C1289      N1296   1.439       .  S
C1290      C1291   1.406       .  A
C1290      H1295   1.083       .  S
C1291      C1292   1.412       .  A
C1292      N1293   1.440       .  S
N1293      O1297   1.263       .  A
N1293      O1298   1.263       .  A
N1296      O1299   1.262       .  A
N1296      O1300   1.263       .  A
C1301      C1302   1.406       .  A
C1301      C1306   1.391       .  A
C1301      H1308   1.083       .  S
C1302      C1303   1.420       .  A
C1303      C1304   1.412       .  A
C1303      N1310   1.436       .  S
C1304      C1305   1.407       .  A
C1304      H1309   1.083       .  S
C1305      C1306   1.413       .  A
C1306      N1307   1.432       .  S
N1307      O1311   1.262       .  A
N1307      O1312   1.263       .  A
N1310      O1313   1.263       .  A
N1310      O1314   1.262       .  A
C1315      C1316   1.406       .  A
C1315      C1320   1.397       .  A
C1315      H1322   1.084       .  S
C1316      C1317   1.416       .  A
C1317      C1318   1.409       .  A
C1317      N1324   1.436       .  S
C1318      C1319   1.405       .  A
C1318      H1323   1.083       .  S
C1319      C1320   1.413       .  A
C1320      N1321   1.439       .  S
N1321      O1325   1.263       .  A
N1321      O1326   1.263       .  A
N1324      O1327   1.262       .  A
N1324      O1328   1.263       .  A
C1329      C1330   1.402       .  A
C1329      C1334   1.403       .  A
C1329      H1336   1.084       .  S
C1330      C1331   1.416       .  A
C1331      C1332   1.404       .  A
C1331      N1338   1.438       .  S
C1332      C1333   1.403       .  A
C1332      H1337   1.083       .  S
C1333      C1334   1.416       .  A
C1334      N1335   1.438       .  S
N1335      O1339   1.263       .  A
N1335      O1340   1.263       .  A
N1338      O1341   1.263       .  A
N1338      O1342   1.263       .  A
C1343      C1344   1.403       .  A
C1343      C1348   1.399       .  A
C1343      H1350   1.084       .  S
C1344      C1345   1.418   1_556  A
C1345      C1346   1.407       .  A
C1345      N1352   1.438       .  S
C1346      C1347   1.403   1_554  A
C1346      H1351   1.084       .  S
C1347      C1348   1.415       .  A
C1348      N1349   1.440       .  S
N1349      O1353   1.263       .  A
N1349      O1354   1.262       .  A
N1352      O1355   1.263       .  A
N1352      O1356   1.263       .  A
C1357      C1358   1.407   1_554  A
C1357      C1362   1.412       .  A
C1357      H1364   1.083       .  S
C1358      C1359   1.417       .  A
C1359      C1360   1.393       .  A
C1359      N1366   1.438       .  S
C1360      C1361   1.406       .  A
C1360      H1365   1.083       .  S
C1361      C1362   1.419   1_556  A
C1362      N1363   1.437       .  S
N1363      O1367   1.263       .  A
N1363      O1368   1.263       .  A
N1366      O1369   1.260       .  A
N1366      O1370   1.263       .  A
C1371      C1372   1.404       .  A
C1371      C1376   1.396       .  A
C1371      H1378   1.082       .  S
C1372      C1373   1.418   1_545  A
C1373      C1374   1.411       .  A
C1373      N1380   1.439       .  S
C1374      C1375   1.405   1_565  A
C1374      H1379   1.083       .  S
C1375      C1376   1.412       .  A
C1376      N1377   1.440       .  S
N1377      O1381   1.263       .  A
N1377      O1382   1.263       .  A
N1380      O1383   1.262       .  A
N1380      O1384   1.263       .  A
C1385      C1386   1.405   1_565  A
C1385      C1390   1.397       .  A
C1385      H1392   1.084       .  S
C1386      C1387   1.418       .  A
C1387      C1388   1.408       .  A
C1387      N1394   1.438       .  S
C1388      C1389   1.404       .  A
C1388      H1393   1.083       .  S
C1389      C1390   1.413   1_545  A
C1390      N1391   1.438       .  S
N1391      O1395   1.263       .  A
N1391      O1396   1.262       .  A
N1394      O1397   1.262       .  A
N1394      O1398   1.263       .  A
C1399      C1400   1.403       .  A
C1399      C1404   1.410       .  A
C1399      H1406   1.084       .  S
C1400      C1401   1.412       .  A
C1401      C1402   1.402       .  A
C1401      N1408   1.440       .  S
C1402      C1403   1.402       .  A
C1402      H1407   1.084       .  S
C1403      C1404   1.418       .  A
C1404      N1405   1.443       .  S
N1405      O1409   1.263       .  A
N1405      O1410   1.262       .  A
N1408      O1411   1.262       .  A
N1408      O1412   1.263       .  A
C1413      C1414   1.405       .  A
C1413      C1418   1.408       .  A
C1413      H1420   1.083       .  S
C1414      C1415   1.417       .  A
C1415      C1416   1.402       .  A
C1415      N1422   1.441       .  S
C1416      C1417   1.401       .  A
C1416      H1421   1.084       .  S
C1417      C1418   1.416       .  A
C1418      N1419   1.440       .  S
N1419      O1423   1.263       .  A
N1419      O1424   1.262       .  A
N1422      O1425   1.263       .  A
N1422      O1426   1.263       .  A
C1427      C1428   1.404       .  A
C1427      C1432   1.405       .  A
C1427      H1434   1.084       .  S
C1428      C1429   1.415       .  A
C1429      C1430   1.406       .  A
C1429      N1436   1.437       .  S
C1430      C1431   1.402       .  A
C1430      H1435   1.084       .  S
C1431      C1432   1.414       .  A
C1432      N1433   1.442       .  S
N1433      O1437   1.263       .  A
N1433      O1438   1.263       .  A
N1436      O1439   1.262       .  A
N1436      O1440   1.263       .  A
C1441      C1442   1.402       .  A
C1441      C1446   1.408       .  A
C1441      H1448   1.084       .  S
C1442      C1443   1.414       .  A
C1443      C1444   1.402       .  A
C1443      N1450   1.438       .  S
C1444      C1445   1.404       .  A
C1444      H1449   1.084       .  S
C1445      C1446   1.418       .  A
C1446      N1447   1.439       .  S
N1447      O1451   1.263       .  A
N1447      O1452   1.261       .  A
N1450      O1453   1.262       .  A
N1450      O1454   1.262       .  A
C1455      C1456   1.403       .  A
C1455      C1460   1.409       .  A
C1455      H1462   1.083       .  S
C1456      C1457   1.416       .  A
C1457      C1458   1.407       .  A
C1457      N1464   1.443       .  S
C1458      C1459   1.403       .  A
C1458      H1463   1.084       .  S
C1459      C1460   1.421       .  A
C1460      N1461   1.449       .  S
N1461      O1465   1.263       .  A
N1461      O1466   1.261       .  A
N1464      O1467   1.261       .  A
N1464      O1468   1.263       .  A
C1469      C1470   1.407       .  A
C1469      C1474   1.406       .  A
C1469      H1476   1.083       .  S
C1470      C1471   1.416       .  A
C1471      C1472   1.402       .  A
C1471      N1478   1.440       .  S
C1472      C1473   1.403       .  A
C1472      H1477   1.084       .  S
C1473      C1474   1.413       .  A
C1474      N1475   1.435       .  S
N1475      O1479   1.262       .  A
N1475      O1480   1.262       .  A
N1478      O1481   1.263       .  A
N1478      O1482   1.263       .  A
C1483      C1484   1.404       .  A
C1483      C1488   1.399       .  A
C1483      H1490   1.084       .  S
C1484      C1485   1.419       .  A
C1485      C1486   1.408       .  A
C1485      N1492   1.437       .  S
C1486      C1487   1.404       .  A
C1486      H1491   1.084       .  S
C1487      C1488   1.415       .  A
C1488      N1489   1.438       .  S
N1489      O1493   1.263       .  A
N1489      O1494   1.263       .  A
N1492      O1495   1.263       .  A
N1492      O1496   1.263       .  A
C1497      C1498   1.405       .  A
C1497      C1502   1.396       .  A
C1497      H1504   1.083       .  S
C1498      C1499   1.418       .  A
C1499      C1500   1.410       .  A
C1499      N1506   1.438       .  S
C1500      C1501   1.406       .  A
C1500      H1505   1.084       .  S
C1501      C1502   1.414       .  A
C1502      N1503   1.439       .  S
N1503      O1507   1.263       .  A
N1503      O1508   1.261       .  A
N1506      O1509   1.263       .  A
N1506      O1510   1.263       .  A
C1511      C1512   1.403       .  A
C1511      C1516   1.400       .  A
C1511      H1518   1.084       .  S
C1512      C1513   1.414       .  A
C1513      C1514   1.405       .  A
C1513      N1520   1.431       .  S
C1514      C1515   1.403       .  A
C1514      H1519   1.083       .  S
C1515      C1516   1.417       .  A
C1516      N1517   1.440       .  S
N1517      O1521   1.263       .  A
N1517      O1522   1.263       .  A
N1520      O1523   1.259       .  A
N1520      O1524   1.262       .  A
C1525      C1526   1.402       .  A
C1525      C1530   1.406       .  A
C1525      H1532   1.084       .  S
C1526      C1527   1.415       .  A
C1527      C1528   1.402       .  A
C1527      N1534   1.442       .  S
C1528      C1529   1.403       .  A
C1528      H1533   1.084       .  S
C1529      C1530   1.417       .  A
C1530      N1531   1.440       .  S
N1531      O1535   1.263       .  A
N1531      O1536   1.263       .  A
N1534      O1537   1.263       .  A
N1534      O1538   1.263       .  A
C1539      C1540   1.402       .  A
C1539      C1544   1.400       .  A
C1539      H1546   1.084       .  S
C1540      C1541   1.420   1_655  A
C1541      C1542   1.408       .  A
C1541      N1548   1.442       .  S
C1542      C1543   1.401   1_455  A
C1542      H1547   1.084       .  S
C1543      C1544   1.411       .  A
C1544      N1545   1.434       .  S
N1545      O1549   1.262       .  A
N1545      O1550   1.261       .  A
N1548      O1551   1.261       .  A
N1548      O1552   1.263       .  A
C1553      C1554   1.401   1_455  A
C1553      C1558   1.405       .  A
C1553      H1560   1.084       .  S
C1554      C1555   1.416       .  A
C1555      C1556   1.405       .  A
C1555      N1562   1.442       .  S
C1556      C1557   1.401   1_655  A
C1556      H1561   1.084       .  S
C1557      C1558   1.413       .  A
C1558      N1559   1.438       .  S
N1559      O1563   1.263       .  A
N1559      O1564   1.262       .  A
N1562      O1565   1.262       .  A
N1562      O1566   1.263       .  A
C1567      C1568   1.401       .  A
C1567      C1572   1.403       .  A
C1567      H1574   1.084       .  S
C1568      C1569   1.411   1_655  A
C1569      C1570   1.405       .  A
C1569      N1576   1.435       .  S
C1570      C1571   1.405   1_455  A
C1570      H1575   1.084       .  S
C1571      C1572   1.415       .  A
C1572      N1573   1.439       .  S
N1573      O1577   1.263       .  A
N1573      O1578   1.262       .  A
N1576      O1579   1.262       .  A
N1576      O1580   1.263       .  A
C1581      C1582   1.402       .  A
C1581      C1586   1.403       .  A
C1581      H1588   1.084       .  S
C1582      C1583   1.418   1_655  A
C1583      C1584   1.407       .  A
C1583      N1590   1.442       .  S
C1584      C1585   1.403   1_455  A
C1584      H1589   1.084       .  S
C1585      C1586   1.413       .  A
C1586      N1587   1.440       .  S
N1587      O1591   1.263       .  A
N1587      O1592   1.263       .  A
N1590      O1593   1.261       .  A
N1590      O1594   1.263       .  A
C1595      C1596   1.405       .  A
C1595      C1600   1.403       .  A
C1595      H1602   1.084       .  S
C1596      C1597   1.416   1_655  A
C1597      C1598   1.404       .  A
C1597      N1604   1.439       .  S
C1598      C1599   1.405   1_455  A
C1598      H1603   1.084       .  S
C1599      C1600   1.416       .  A
C1600      N1601   1.438       .  S
N1601      O1605   1.262       .  A
N1601      O1606   1.263       .  A
N1604      O1607   1.263       .  A
N1604      O1608   1.263       .  A
C1609      C1610   1.407   1_554  A
C1609      C1614   1.413       .  A
C1609      H1616   1.083       .  S
C1610      C1611   1.412       .  A
C1611      C1612   1.392       .  A
C1611      N1618   1.435       .  S
C1612      C1613   1.403       .  A
C1612      H1617   1.084       .  S
C1613      C1614   1.418   1_556  A
C1614      N1615   1.438       .  S
N1615      O1619   1.263       .  A
N1615      O1620   1.262       .  A
N1618      O1621   1.261       .  A
N1618      O1622   1.263       .  A
C1623      C1624   1.404       .  A
C1623      C1628   1.411       .  A
C1623      H1630   1.083   1_556  S
C1624      C1625   1.416       .  A
C1625      C1626   1.395       .  A
C1625      N1632   1.441       .  S
C1626      C1627   1.402       .  A
C1626      H1631   1.084       .  S
C1627      C1628   1.422       .  A
C1628      N1629   1.438   1_556  S
N1629      O1633   1.263       .  A
N1629      O1634   1.261       .  A
N1632      O1635   1.263       .  A
N1632      O1636   1.263       .  A
C1637      C1638   1.409       .  A
C1637      C1642   1.391       .  A
C1637      H1644   1.085       .  S
C1638      C1639   1.422       .  A
C1639      C1640   1.409       .  A
C1639      N1646   1.431   1_556  S
C1640      C1641   1.406       .  A
C1640      H1645   1.087       .  S
C1641      C1642   1.413       .  A
C1642      N1643   1.434       .  S
N1643      O1647   1.262       .  A
N1643      O1648   1.263   1_556  A
N1646      O1649   1.263   1_554  A
N1646      O1650   1.261       .  A
C1651      C1652   1.406       .  A
C1651      C1656   1.409       .  A
C1651      H1658   1.083       .  S
C1652      C1653   1.415   1_556  A
C1653      C1654   1.398   1_554  A
C1653      N1660   1.437       .  S
C1654      C1655   1.401       .  A
C1654      H1659   1.084   1_556  S
C1655      C1656   1.417       .  A
C1656      N1657   1.440       .  S
N1657      O1661   1.263       .  A
N1657      O1662   1.263       .  A
N1660      O1663   1.263       .  A
N1660      O1664   1.263       .  A
C1665      C1666   1.407       .  A
C1665      C1670   1.412   1_556  A
C1665      H1672   1.083   1_556  S
C1666      C1667   1.412       .  A
C1667      C1668   1.390       .  A
C1667      N1674   1.431       .  S
C1668      C1669   1.404       .  A
C1668      H1673   1.084       .  S
C1669      C1670   1.419   1_556  A
C1670      N1671   1.438       .  S
N1671      O1675   1.263       .  A
N1671      O1676   1.263       .  A
N1674      O1677   1.262       .  A
N1674      O1678   1.261       .  A
C1679      C1680   1.404       .  A
C1679      C1684   1.407       .  A
C1679      H1686   1.084       .  S
C1680      C1681   1.414       .  A
C1681      C1682   1.401       .  A
C1681      N1688   1.441       .  S
C1682      C1683   1.401       .  A
C1682      H1687   1.084       .  S
C1683      C1684   1.415       .  A
C1684      N1685   1.441       .  S
N1685      O1689   1.263       .  A
N1685      O1690   1.263       .  A
N1688      O1691   1.263       .  A
N1688      O1692   1.263       .  A
C1693      C1694   1.402       .  A
C1693      C1698   1.404       .  A
C1693      H1700   1.084       .  S
C1694      C1695   1.415       .  A
C1695      C1696   1.406       .  A
C1695      N1702   1.442       .  S
C1696      C1697   1.402       .  A
C1696      H1701   1.084       .  S
C1697      C1698   1.414       .  A
C1698      N1699   1.442       .  S
N1699      O1703   1.263       .  A
N1699      O1704   1.262       .  A
N1702      O1705   1.262       .  A
N1702      O1706   1.263       .  A
C1707      C1708   1.403       .  A
C1707      C1712   1.406       .  A
C1707      H1714   1.084       .  S
C1708      C1709   1.415       .  A
C1709      C1710   1.404       .  A
C1709      N1716   1.442       .  S
C1710      C1711   1.401       .  A
C1710      H1715   1.084       .  S
C1711      C1712   1.415       .  A
C1712      N1713   1.441       .  S
N1713      O1717   1.263       .  A
N1713      O1718   1.262       .  A
N1716      O1719   1.263       .  A
N1716      O1720   1.263       .  A
C1721      C1722   1.401       .  A
C1721      C1726   1.405       .  A
C1721      H1728   1.083       .  S
C1722      C1723   1.412       .  A
C1723      C1724   1.403       .  A
C1723      N1730   1.441       .  S
C1724      C1725   1.402       .  A
C1724      H1729   1.084       .  S
C1725      C1726   1.415       .  A
C1726      N1727   1.441       .  S
N1727      O1731   1.263       .  A
N1727      O1732   1.262       .  A
N1730      O1733   1.262       .  A
N1730      O1734   1.263       .  A
C1735      C1736   1.404       .  A
C1735      C1740   1.404       .  A
C1735      H1742   1.084       .  S
C1736      C1737   1.416       .  A
C1737      C1738   1.404       .  A
C1737      N1744   1.439       .  S
C1738      C1739   1.404       .  A
C1738      H1743   1.084       .  S
C1739      C1740   1.415       .  A
C1740      N1741   1.439       .  S
N1741      O1745   1.263       .  A
N1741      O1746   1.262       .  A
N1744      O1747   1.262       .  A
N1744      O1748   1.263       .  A
C1749      C1750   1.404       .  A
C1749      C1754   1.409       .  A
C1749      H1756   1.083       .  S
C1750      C1751   1.414       .  A
C1751      C1752   1.395       .  A
C1751      N1758   1.441       .  S
C1752      C1753   1.401       .  A
C1752      H1757   1.080       .  S
C1753      C1754   1.417       .  A
C1754      N1755   1.438       .  S
N1755      O1759   1.263       .  A
N1755      O1760   1.263       .  A
N1758      O1761   1.263       .  A
N1758      O1762   1.263       .  A
C1763      C1764   1.405       .  A
C1763      C1768   1.390       .  A
C1763      H1770   1.083       .  S
C1764      C1765   1.420       .  A
C1765      C1766   1.414       .  A
C1765      N1772   1.436       .  S
C1766      C1767   1.408       .  A
C1766      H1771   1.083       .  S
C1767      C1768   1.415       .  A
C1768      N1769   1.434       .  S
N1769      O1773   1.262       .  A
N1769      O1774   1.263       .  A
N1772      O1775   1.263       .  A
N1772      O1776   1.262       .  A
C1777      C1778   1.406       .  A
C1777      C1782   1.411       .  A
C1777      H1784   1.083       .  S
C1778      C1779   1.415       .  A
C1779      C1780   1.394       .  A
C1779      N1786   1.436       .  S
C1780      C1781   1.405       .  A
C1780      H1785   1.082       .  S
C1781      C1782   1.420       .  A
C1782      N1783   1.434       .  S
N1783      O1787   1.263       .  A
N1783      O1788   1.262       .  A
N1786      O1789   1.261       .  A
N1786      O1790   1.263       .  A
C1791      C1792   1.405       .  A
C1791      C1796   1.409       .  A
C1791      H1798   1.083       .  S
C1792      C1793   1.416       .  A
C1793      C1794   1.397       .  A
C1793      N1800   1.440       .  S
C1794      C1795   1.401       .  A
C1794      H1799   1.084       .  S
C1795      C1796   1.417       .  A
C1796      N1797   1.438       .  S
N1797      O1801   1.263       .  A
N1797      O1802   1.262       .  A
N1800      O1803   1.263       .  A
N1800      O1804   1.263       .  A
C1805      C1806   1.407       .  A
C1805      C1810   1.408       .  A
C1805      H1812   1.083       .  S
C1806      C1807   1.413       .  A
C1807      C1808   1.398       .  A
C1807      N1814   1.436       .  S
C1808      C1809   1.403       .  A
C1808      H1813   1.084       .  S
C1809      C1810   1.416       .  A
C1810      N1811   1.440       .  S
N1811      O1815   1.263       .  A
N1811      O1816   1.263       .  A
N1814      O1817   1.262       .  A
N1814      O1818   1.263       .  A
C1819      C1820   1.401   1_565  A
C1819      C1824   1.404       .  A
C1819      H1826   1.084       .  S
C1820      C1821   1.412       .  A
C1821      C1822   1.402       .  A
C1821      N1828   1.441       .  S
C1822      C1823   1.402       .  A
C1822      H1827   1.084       .  S
C1823      C1824   1.417   1_545  A
C1824      N1825   1.441       .  S
N1825      O1829   1.263       .  A
N1825      O1830   1.263       .  A
N1828      O1831   1.262       .  A
N1828      O1832   1.263       .  A
C1833      C1834   1.404       .  A
C1833      C1838   1.396       .  A
C1833      H1840   1.084       .  S
C1834      C1835   1.418   1_545  A
C1835      C1836   1.412       .  A
C1835      N1842   1.436       .  S
C1836      C1837   1.406   1_565  A
C1836      H1841   1.083       .  S
C1837      C1838   1.415       .  A
C1838      N1839   1.439       .  S
N1839      O1843   1.263       .  A
N1839      O1844   1.262       .  A
N1842      O1845   1.262       .  A
N1842      O1846   1.263       .  A
C1847      C1848   1.406       .  A
C1847      C1852   1.393       .  A
C1847      H1854   1.084       .  S
C1848      C1849   1.420   1_545  A
C1849      C1850   1.412       .  A
C1849      N1856   1.437       .  S
C1850      C1851   1.406   1_565  A
C1850      H1855   1.083       .  S
C1851      C1852   1.412       .  A
C1852      N1853   1.430       .  S
N1853      O1857   1.262       .  A
N1853      O1858   1.262       .  A
N1856      O1859   1.263       .  A
N1856      O1860   1.262       .  A
C1861      C1862   1.404       .  A
C1861      C1866   1.404       .  A
C1861      H1868   1.084       .  S
C1862      C1863   1.415   1_545  A
C1863      C1864   1.402       .  A
C1863      N1870   1.437       .  S
C1864      C1865   1.403   1_565  A
C1864      H1869   1.084       .  S
C1865      C1866   1.414       .  A
C1866      N1867   1.437       .  S
N1867      O1871   1.262       .  A
N1867      O1872   1.263       .  A
N1870      O1873   1.263       .  A
N1870      O1874   1.262       .  A
C1875      C1876   1.402   1_655  A
C1875      C1880   1.406       .  A
C1875      H1882   1.084       .  S
C1876      C1877   1.418       .  A
C1877      C1878   1.406       .  A
C1877      N1884   1.443       .  S
C1878      C1879   1.401       .  A
C1878      H1883   1.084       .  S
C1879      C1880   1.415   1_455  A
C1880      N1881   1.443       .  S
N1881      O1885   1.263       .  A
N1881      O1886   1.263       .  A
N1884      O1887   1.261       .  A
N1884      O1888   1.263       .  A
C1889      C1890   1.403   1_655  A
C1889      C1894   1.402       .  A
C1889      H1896   1.084       .  S
C1890      C1891   1.417       .  A
C1891      C1892   1.406       .  A
C1891      N1898   1.440       .  S
C1892      C1893   1.402   1_455  A
C1892      H1897   1.084       .  S
C1893      C1894   1.413       .  A
C1894      N1895   1.441       .  S
N1895      O1899   1.263       .  A
N1895      O1900   1.262       .  A
N1898      O1901   1.263       .  A
N1898      O1902   1.263       .  A
C1903      C1904   1.401       .  A
C1903      C1908   1.404       .  A
C1903      H1910   1.084       .  S
C1904      C1905   1.419   1_655  A
C1905      C1906   1.405       .  A
C1905      N1912   1.445       .  S
C1906      C1907   1.400   1_455  A
C1906      H1911   1.082       .  S
C1907      C1908   1.414       .  A
C1908      N1909   1.441       .  S
N1909      O1913   1.263       .  A
N1909      O1914   1.262       .  A
N1912      O1915   1.262       .  A
N1912      O1916   1.263       .  A
C1917      C1918   1.403   1_455  A
C1917      C1922   1.393       .  A
C1917      H1924   1.084       .  S
C1918      C1919   1.420       .  A
C1919      C1920   1.411       .  A
C1919      N1926   1.437       .  S
C1920      C1921   1.405       .  A
C1920      H1925   1.083       .  S
C1921      C1922   1.411   1_655  A
C1922      N1923   1.433       .  S
N1923      O1927   1.263       .  A
N1923      O1928   1.260       .  A
N1926      O1929   1.262       .  A
N1926      O1930   1.263       .  A
C1931      C1932   1.402   1_655  A
C1931      C1936   1.402       .  A
C1931      H1938   1.084       .  S
C1932      C1933   1.416       .  A
C1933      C1934   1.406       .  A
C1933      N1940   1.442       .  S
C1934      C1935   1.404   1_455  A
C1934      H1939   1.084       .  S
C1935      C1936   1.414       .  A
C1936      N1937   1.439       .  S
N1937      O1941   1.263       .  A
N1937      O1942   1.263       .  A
N1940      O1943   1.263       .  A
N1940      O1944   1.263       .  A
C1945      C1946   1.406   1_565  A
C1945      C1950   1.395       .  A
C1945      H1952   1.083       .  S
C1946      C1947   1.418       .  A
C1947      C1948   1.409       .  A
C1947      N1954   1.434       .  S
C1948      C1949   1.406       .  A
C1948      H1953   1.083       .  S
C1949      C1950   1.414   1_545  A
C1950      N1951   1.434       .  S
N1951      O1955   1.262       .  A
N1951      O1956   1.262   1_565  A
N1954      O1957   1.263       .  A
N1954      O1958   1.262       .  A
C1959      C1960   1.402       .  A
C1959      C1964   1.401       .  A
C1959      H1966   1.084       .  S
C1960      C1961   1.417       .  A
C1961      C1962   1.409       .  A
C1961      N1968   1.441       .  S
C1962      C1963   1.403       .  A
C1962      H1967   1.083       .  S
C1963      C1964   1.410       .  A
C1964      N1965   1.438       .  S
N1965      O1969   1.263       .  A
N1965      O1970   1.263       .  A
N1968      O1971   1.262       .  A
N1968      O1972   1.263       .  A
C1973      C1974   1.406       .  A
C1973      C1978   1.408       .  A
C1973      H1980   1.084       .  S
C1974      C1975   1.418       .  A
C1975      C1976   1.402       .  A
C1975      N1982   1.440       .  S
C1976      C1977   1.402       .  A
C1976      H1981   1.084       .  S
C1977      C1978   1.416       .  A
C1978      N1979   1.435       .  S
N1979      O1983   1.262       .  A
N1979      O1984   1.262       .  A
N1982      O1985   1.263       .  A
N1982      O1986   1.263       .  A
C1987      C1988   1.403       .  A
C1987      C1992   1.406       .  A
C1987      H1994   1.083       .  S
C1988      C1989   1.419       .  A
C1989      C1990   1.407       .  A
C1989      N1996   1.446       .  S
C1990      C1991   1.401       .  A
C1990      H1995   1.083       .  S
C1991      C1992   1.413       .  A
C1992      N1993   1.442       .  S
N1993      O1997   1.263       .  A
N1993      O1998   1.262       .  A
N1996      O1999   1.262       .  A
N1996      O2000   1.263       .  A
C2001      C2002   1.404       .  A
C2001      C2006   1.408       .  A
C2001      H2008   1.083       .  S
C2002      C2003   1.415       .  A
C2003      C2004   1.403       .  A
C2003      N2010   1.441       .  S
C2004      C2005   1.402       .  A
C2004      H2009   1.084       .  S
C2005      C2006   1.416       .  A
C2006      N2007   1.441       .  S
N2007      O2011   1.263       .  A
N2007      O2012   1.262       .  A
N2010      O2013   1.263       .  A
N2010      O2014   1.263       .  A
C2015      C2016   1.405       .  A
C2015      C2020   1.407       .  A
C2015      H2022   1.084       .  S
C2016      C2017   1.415       .  A
C2017      C2018   1.403       .  A
C2017      N2024   1.438       .  S
C2018      C2019   1.404       .  A
C2018      H2023   1.084       .  S
C2019      C2020   1.417       .  A
C2020      N2021   1.440       .  S
N2021      O2025   1.263       .  A
N2021      O2026   1.263       .  A
N2024      O2027   1.263       .  A
N2024      O2028   1.262       .  A
C2029      C2030   1.401   1_455  A
C2029      C2034   1.405       .  A
C2029      H2036   1.081       .  S
C2030      C2031   1.413       .  A
C2031      C2032   1.404       .  A
C2031      N2038   1.439       .  S
C2032      C2033   1.401   1_655  A
C2032      H2037   1.084       .  S
C2033      C2034   1.415       .  A
C2034      N2035   1.443       .  S
N2035      O2039   1.263       .  A
N2035      O2040   1.262       .  A
N2038      O2041   1.262       .  A
N2038      O2042   1.263       .  A
C2043      C2044   1.404   1_655  A
C2043      C2048   1.410       .  A
C2043      H2050   1.084       .  S
C2044      C2045   1.412       .  A
C2045      C2046   1.400       .  A
C2045      N2052   1.442       .  S
C2046      C2047   1.402       .  A
C2046      H2051   1.079       .  S
C2047      C2048   1.421   1_455  A
C2048      N2049   1.446       .  S
N2049      O2053   1.263       .  A
N2049      O2054   1.261       .  A
N2052      O2055   1.263       .  A
N2052      O2056   1.263       .  A
C2057      C2058   1.402   1_655  A
C2057      C2062   1.398       .  A
C2057      H2064   1.084       .  S
C2058      C2059   1.419       .  A
C2059      C2060   1.409       .  A
C2059      N2066   1.439       .  S
C2060      C2061   1.402   1_455  A
C2060      H2065   1.084       .  S
C2061      C2062   1.412       .  A
C2062      N2063   1.437       .  S
N2063      O2067   1.263       .  A
N2063      O2068   1.262       .  A
N2066      O2069   1.262       .  A
N2066      O2070   1.263       .  A
C2071      C2072   1.401   1_655  A
C2071      C2076   1.406       .  A
C2071      H2078   1.083       .  S
C2072      C2073   1.414       .  A
C2073      C2074   1.407       .  A
C2073      N2080   1.443       .  S
C2074      C2075   1.403       .  A
C2074      H2079   1.084       .  S
C2075      C2076   1.419   1_455  A
C2076      N2077   1.446       .  S
N2077      O2081   1.263       .  A
N2077      O2082   1.260       .  A
N2080      O2083   1.262       .  A
N2080      O2084   1.263       .  A
C2085      C2086   1.402   1_455  A
C2085      C2090   1.401       .  A
C2085      H2092   1.084       .  S
C2086      C2087   1.420       .  A
C2087      C2088   1.409       .  A
C2087      N2094   1.449       .  S
C2088      C2089   1.402   1_655  A
C2088      H2093   1.083       .  S
C2089      C2090   1.412       .  A
C2090      N2091   1.442       .  S
N2091      O2095   1.263       .  A
N2091      O2096   1.262       .  A
N2094      O2097   1.262       .  A
N2094      O2098   1.263       .  A
C2099      C2100   1.407   1_565  A
C2099      C2104   1.412       .  A
C2099      H2106   1.083       .  S
C2100      C2101   1.415       .  A
C2101      C2102   1.393       .  A
C2101      N2108   1.434       .  S
C2102      C2103   1.403       .  A
C2102      H2107   1.083       .  S
C2103      C2104   1.419   1_545  A
C2104      N2105   1.437       .  S
N2105      O2109   1.262       .  A
N2105      O2110   1.263       .  A
N2108      O2111   1.262       .  A
N2108      O2112   1.262       .  A
C2113      C2114   1.404   1_565  A
C2113      C2118   1.408       .  A
C2113      H2120   1.084       .  S
C2114      C2115   1.416       .  A
C2115      C2116   1.399       .  A
C2115      N2122   1.441       .  S
C2116      C2117   1.402       .  A
C2116      H2121   1.084       .  S
C2117      C2118   1.416   1_545  A
C2118      N2119   1.435       .  S
N2119      O2123   1.262       .  A
N2119      O2124   1.262       .  A
N2122      O2125   1.263       .  A
N2122      O2126   1.263       .  A
C2127      C2128   1.402   1_565  A
C2127      C2132   1.395       .  A
C2127      H2134   1.081       .  S
C2128      C2129   1.417       .  A
C2129      C2130   1.411       .  A
C2129      N2136   1.438       .  S
C2130      C2131   1.406       .  A
C2130      H2135   1.083       .  S
C2131      C2132   1.414   1_545  A
C2132      N2133   1.440       .  S
N2133      O2137   1.263       .  A
N2133      O2138   1.263       .  A
N2136      O2139   1.262       .  A
N2136      O2140   1.263       .  A
C2141      C2142   1.406       .  A
C2141      C2146   1.411       .  A
C2141      H2148   1.083       .  S
C2142      C2143   1.414   1_545  A
C2143      C2144   1.393       .  A
C2143      N2150   1.433       .  S
C2144      C2145   1.406   1_565  A
C2144      H2149   1.082       .  S
C2145      C2146   1.420       .  A
C2146      N2147   1.436       .  S
N2147      O2151   1.262       .  A
N2147      O2152   1.263       .  A
N2150      O2153   1.262       .  A
N2150      O2154   1.262       .  A
C2155      C2156   1.403   1_565  A
C2155      C2160   1.397       .  A
C2155      H2162   1.084       .  S
C2156      C2157   1.417       .  A
C2157      C2158   1.405       .  A
C2157      N2164   1.439       .  S
C2158      C2159   1.402       .  A
C2158      H2163   1.084       .  S
C2159      C2160   1.408   1_545  A
C2160      N2161   1.429       .  S
N2161      O2165   1.262       .  A
N2161      O2166   1.262       .  A
N2164      O2167   1.263       .  A
N2164      O2168   1.263       .  A
C2169      C2170   1.407   1_554  A
C2169      C2174   1.395       .  A
C2169      H2176   1.083       .  S
C2170      C2171   1.421       .  A
C2171      C2172   1.409       .  A
C2171      N2178   1.436       .  S
C2172      C2173   1.404       .  A
C2172      H2177   1.084       .  S
C2173      C2174   1.410   1_556  A
C2174      N2175   1.431       .  S
N2175      O2179   1.262       .  A
N2175      O2180   1.262       .  A
N2178      O2181   1.263       .  A
N2178      O2182   1.262       .  A
C2183      C2184   1.403       .  A
C2183      C2188   1.399       .  A
C2183      H2190   1.084       .  S
C2184      C2185   1.418   1_556  A
C2185      C2186   1.408       .  A
C2185      N2192   1.439       .  S
C2186      C2187   1.404   1_554  A
C2186      H2191   1.084       .  S
C2187      C2188   1.416       .  A
C2188      N2189   1.441       .  S
N2189      O2193   1.263       .  A
N2189      O2194   1.261       .  A
N2192      O2195   1.263       .  A
N2192      O2196   1.263       .  A
C2197      C2198   1.407       .  A
C2197      C2202   1.395       .  A
C2197      H2204   1.083       .  S
C2198      C2199   1.418   1_556  A
C2199      C2200   1.410       .  A
C2199      N2206   1.434       .  S
C2200      C2201   1.408   1_554  A
C2200      H2205   1.083       .  S
C2201      C2202   1.416       .  A
C2202      N2203   1.435       .  S
N2203      O2207   1.262       .  A
N2203      O2208   1.262       .  A
N2206      O2209   1.263       .  A
N2206      O2210   1.262       .  A
C2211      C2212   1.404       .  A
C2211      C2216   1.395       .  A
C2211      H2218   1.084       .  S
C2212      C2213   1.417   1_556  A
C2213      C2214   1.411       .  A
C2213      N2220   1.439       .  S
C2214      C2215   1.406   1_554  A
C2214      H2219   1.083       .  S
C2215      C2216   1.411       .  A
C2216      N2217   1.437       .  S
N2217      O2221   1.263       .  A
N2217      O2222   1.261       .  A
N2220      O2223   1.262       .  A
N2220      O2224   1.263       .  A
C2225      C2226   1.403       .  A
C2225      C2230   1.405       .  A
C2225      H2232   1.084       .  S
C2226      C2227   1.414   1_556  A
C2227      C2228   1.403       .  A
C2227      N2234   1.437       .  S
C2228      C2229   1.404   1_554  A
C2228      H2233   1.083       .  S
C2229      C2230   1.418       .  A
C2230      N2231   1.439       .  S
N2231      O2235   1.263       .  A
N2231      O2236   1.263       .  A
N2234      O2237   1.263       .  A
N2234      O2238   1.263       .  A
C2239      C2240   1.405       .  A
C2239      C2244   1.402       .  A
C2239      H2246   1.083       .  S
C2240      C2241   1.416       .  A
C2241      C2242   1.406       .  A
C2241      N2248   1.435       .  S
C2242      C2243   1.403       .  A
C2242      H2247   1.084       .  S
C2243      C2244   1.415       .  A
C2244      N2245   1.441       .  S
N2245      O2249   1.263       .  A
N2245      O2250   1.262       .  A
N2248      O2251   1.262       .  A
N2248      O2252   1.262       .  A
C2253      C2254   1.403       .  A
C2253      C2258   1.399       .  A
C2253      H2260   1.084       .  S
C2254      C2255   1.419       .  A
C2255      C2256   1.409       .  A
C2255      N2262   1.438       .  S
C2256      C2257   1.403       .  A
C2256      H2261   1.084       .  S
C2257      C2258   1.415       .  A
C2258      N2259   1.439       .  S
N2259      O2263   1.263       .  A
N2259      O2264   1.262       .  A
N2262      O2265   1.262       .  A
N2262      O2266   1.263       .  A
C2267      C2268   1.401       .  A
C2267      C2272   1.398       .  A
C2267      H2274   1.084       .  S
C2268      C2269   1.416       .  A
C2269      C2270   1.408       .  A
C2269      N2276   1.437       .  S
C2270      C2271   1.405       .  A
C2270      H2275   1.083       .  S
C2271      C2272   1.416       .  A
C2272      N2273   1.439       .  S
N2273      O2277   1.263       .  A
N2273      O2278   1.263       .  A
N2276      O2279   1.262       .  A
N2276      O2280   1.263       .  A
C2281      C2282   1.405       .  A
C2281      C2286   1.394       .  A
C2281      H2288   1.083       .  S
C2282      C2283   1.419       .  A
C2283      C2284   1.411       .  A
C2283      N2290   1.438       .  S
C2284      C2285   1.406       .  A
C2284      H2289   1.083       .  S
C2285      C2286   1.414       .  A
C2286      N2287   1.439       .  S
N2287      O2291   1.263       .  A
N2287      O2292   1.262       .  A
N2290      O2293   1.262       .  A
N2290      O2294   1.263       .  A
C2295      C2296   1.406       .  A
C2295      C2300   1.405       .  A
C2295      H2302   1.083       .  S
C2296      C2297   1.417       .  A
C2297      C2298   1.402       .  A
C2297      N2304   1.438       .  S
C2298      C2299   1.404       .  A
C2298      H2303   1.083       .  S
C2299      C2300   1.415       .  A
C2300      N2301   1.436       .  S
N2301      O2305   1.263       .  A
N2301      O2306   1.262       .  A
N2304      O2307   1.263       .  A
N2304      O2308   1.263       .  A
C2309      C2310   1.405       .  A
C2309      C2314   1.391       .  A
C2309      H2316   1.084       .  S
C2310      C2311   1.418       .  A
C2311      C2312   1.412       .  A
C2311      N2318   1.438       .  S
C2312      C2313   1.407       .  A
C2312      H2317   1.083       .  S
C2313      C2314   1.410       .  A
C2314      N2315   1.434       .  S
N2315      O2319   1.262       .  A
N2315      O2320   1.263       .  A
N2318      O2321   1.263       .  A
N2318      O2322   1.263       .  A
C2323      C2324   1.407       .  A
C2323      C2328   1.409       .  A
C2323      H2330   1.083       .  S
C2324      C2325   1.410       .  A
C2325      C2326   1.392       .  A
C2325      N2332   1.430       .  S
C2326      C2327   1.407       .  A
C2326      H2331   1.084       .  S
C2327      C2328   1.417       .  A
C2328      N2329   1.435       .  S
N2329      O2333   1.262       .  A
N2329      O2334   1.263       .  A
N2332      O2335   1.262       .  A
N2332      O2336   1.262       .  A
C2337      C2338   1.405       .  A
C2337      C2342   1.393       .  A
C2337      H2344   1.083       .  S
C2338      C2339   1.419       .  A
C2339      C2340   1.410       .  A
C2339      N2346   1.438       .  S
C2340      C2341   1.405       .  A
C2340      H2345   1.083       .  S
C2341      C2342   1.413       .  A
C2342      N2343   1.437       .  S
N2343      O2347   1.263       .  A
N2343      O2348   1.263       .  A
N2346      O2349   1.263       .  A
N2346      O2350   1.263       .  A
C2351      C2352   1.406       .  A
C2351      C2356   1.412       .  A
C2351      H2358   1.083       .  S
C2352      C2353   1.415       .  A
C2353      C2354   1.394       .  A
C2353      N2360   1.440       .  S
C2354      C2355   1.401       .  A
C2354      H2359   1.081       .  S
C2355      C2356   1.420       .  A
C2356      N2357   1.439       .  S
N2357      O2361   1.263       .  A
N2357      O2362   1.261       .  A
N2360      O2363   1.263       .  A
N2360      O2364   1.263       .  A
C2365      C2366   1.403       .  A
C2365      C2370   1.398       .  A
C2365      H2372   1.084       .  S
C2366      C2367   1.417       .  A
C2367      C2368   1.408       .  A
C2367      N2374   1.440       .  S
C2368      C2369   1.406       .  A
C2368      H2373   1.083       .  S
C2369      C2370   1.413       .  A
C2370      N2371   1.436       .  S
N2371      O2375   1.263       .  A
N2371      O2376   1.262       .  A
N2374      O2377   1.263       .  A
N2374      O2378   1.263       .  A
C2379      C2380   1.402       .  A
C2379      C2384   1.405       .  A
C2379      H2386   1.084       .  S
C2380      C2381   1.414       .  A
C2381      C2382   1.404       .  A
C2381      N2388   1.443       .  S
C2382      C2383   1.402       .  A
C2382      H2387   1.083       .  S
C2383      C2384   1.417       .  A
C2384      N2385   1.442       .  S
N2385      O2389   1.263       .  A
N2385      O2390   1.262       .  A
N2388      O2391   1.263       .  A
N2388      O2392   1.263       .  A
C2393      C2394   1.401       .  A
C2393      C2398   1.402       .  A
C2393      H2400   1.084       .  S
C2394      C2395   1.416       .  A
C2395      C2396   1.407       .  A
C2395      N2402   1.441       .  S
C2396      C2397   1.402       .  A
C2396      H2401   1.084       .  S
C2397      C2398   1.413       .  A
C2398      N2399   1.440       .  S
N2399      O2403   1.263       .  A
N2399      O2404   1.262       .  A
N2402      O2405   1.263       .  A
N2402      O2406   1.263       .  A
C2407      C2408   1.401       .  A
C2407      C2412   1.408       .  A
C2407      H2414   1.084       .  S
C2408      C2409   1.415       .  A
C2409      C2410   1.402       .  A
C2409      N2416   1.442       .  S
C2410      C2411   1.401       .  A
C2410      H2415   1.084       .  S
C2411      C2412   1.418       .  A
C2412      N2413   1.444       .  S
N2413      O2417   1.263       .  A
N2413      O2418   1.262       .  A
N2416      O2419   1.261       .  A
N2416      O2420   1.263       .  A
C2421      C2422   1.400       .  A
C2421      C2426   1.403       .  A
C2421      H2428   1.084       .  S
C2422      C2423   1.416       .  A
C2423      C2424   1.407       .  A
C2423      N2430   1.441       .  S
C2424      C2425   1.402       .  A
C2424      H2429   1.084       .  S
C2425      C2426   1.414       .  A
C2426      N2427   1.441       .  S
N2427      O2431   1.263       .  A
N2427      O2432   1.262       .  A
N2430      O2433   1.262       .  A
N2430      O2434   1.263       .  A
C2435      C2436   1.402       .  A
C2435      C2440   1.403       .  A
C2435      H2442   1.084       .  S
C2436      C2437   1.416       .  A
C2437      C2438   1.406       .  A
C2437      N2444   1.443       .  S
C2438      C2439   1.402       .  A
C2438      H2443   1.084       .  S
C2439      C2440   1.415       .  A
C2440      N2441   1.443       .  S
N2441      O2445   1.263       .  A
N2441      O2446   1.262       .  A
N2444      O2447   1.262       .  A
N2444      O2448   1.263       .  A
