geometry optimzed in LAMMPS
_audit_creation_date              2020-12-01 
_audit_creation_method            'lammps2cif' 
_symmetry_space_group_name_H-M    'P1' 
_symmetry_Int_Tables_number       1 
_symmetry_cell_setting            triclinic 
loop_ 
_symmetry_equiv_pos_as_xyz 
  x,y,z 
_cell_length_a                    51.0207624 
_cell_length_b                    50.75871572352027 
_cell_length_c                    36.28988466514143 
_cell_angle_alpha                 90.09198618475708 
_cell_angle_beta                  89.9821420215529 
_cell_angle_gamma                 120.44291797423988 
loop_ 
_atom_site_label 
_atom_site_type_symbol 
_atom_site_fract_x 
_atom_site_fract_y 
_atom_site_fract_z 
_atom_site_charge 
Fe1        Fe  0.38239946  0.19565641  0.00088798     1.65800
Fe2        Fe  0.44764092  0.25102692  0.03802770     1.73200
Fe3        Fe  0.44960797  0.20482034  0.97384637     1.54400
O4          O  0.41672350  0.15815716  0.97511190    -0.82000
O5          O  0.47113557  0.27927898  0.99527476    -0.80300
O6          O  0.37928088  0.15436698  0.01019643    -0.84500
O7          O  0.38269255  0.19074012  0.94323457    -0.79300
O8          O  0.46812453  0.19777150  0.01988134    -0.81100
O9          O  0.41588820  0.26579529  0.03355024    -0.83900
C10         C  0.40357337  0.20018794  0.91874932     0.96900
C11         C  0.39305626  0.14247456  0.99470021     1.04300
O12         O  0.42632845  0.21717206  0.00400115    -1.12800
O13         O  0.42454174  0.22301244  0.08132673    -0.75300
O14         O  0.37734657  0.19817333  0.05817138    -0.78800
O15         O  0.43137546  0.21085141  0.92685663    -0.79400
C16         C  0.39601245  0.20572725  0.08502460     0.95800
O17         O  0.38236957  0.23531414  0.99177849    -0.77400
O18         O  0.48386594  0.24260913  0.04631725    -0.82600
C19         C  0.49139007  0.27641456  0.97863812     0.98400
C20         C  0.48778353  0.22034319  0.03820722     1.04400
O21         O  0.48699825  0.25006840  0.96971423    -0.78200
C22         C  0.39418197  0.25939811  0.01113360     1.02700
Fe23       Fe  0.38402083  0.19445456  0.50128719     1.65800
Fe24       Fe  0.44909500  0.20144486  0.46762180     1.73200
Fe25       Fe  0.45170012  0.25051665  0.53107947     1.54400
O26         O  0.41951680  0.26464530  0.53232774    -0.82000
O27         O  0.47275031  0.19833695  0.51115851    -0.80300
O28         O  0.38410576  0.23429083  0.49260246    -0.84500
O29         O  0.38399145  0.19881542  0.55922692    -0.79300
O30         O  0.47005466  0.27666375  0.48539094    -0.81100
O31         O  0.41742318  0.15492267  0.47502034    -0.83900
C32         C  0.40480711  0.20691603  0.58367729     0.96900
C33         C  0.39726678  0.25870266  0.51124213     1.04300
O34         O  0.42797712  0.21520750  0.49969424    -1.12800
O35         O  0.42618039  0.20300209  0.42230496    -0.75300
O36         O  0.37957197  0.18767750  0.44388932    -0.78800
O37         O  0.43293989  0.22380600  0.57651146    -0.79400
C38         C  0.39819577  0.19375952  0.41727420     0.95800
O39         O  0.38034354  0.15289865  0.50948402    -0.77400
O40         O  0.48438900  0.24693859  0.45716261    -0.82600
C41         C  0.49372563  0.22234005  0.52589045     0.98400
C42         C  0.48817745  0.27333633  0.46467843     1.04400
O43         O  0.48956142  0.24435488  0.53409272    -0.78200
C44         C  0.39338415  0.14009149  0.49429749     1.02700
Fe45       Fe  0.19515711  0.81015047  0.99722509     1.65800
Fe46       Fe  0.24919588  0.79891432  0.03402312     1.73200
Fe47       Fe  0.20147383  0.74983089  0.97119518     1.54400
O48         O  0.15552697  0.73641286  0.97519304    -0.82000
O49         O  0.27650636  0.80294785  0.99071084    -0.80300
O50         O  0.15311415  0.77252885  0.00729172    -0.84500
O51         O  0.18902430  0.80424879  0.93995377    -0.79300
O52         O  0.19568038  0.72462183  0.01745796    -0.81100
O53         O  0.26468566  0.84600225  0.02951209    -0.83900
C54         C  0.19690961  0.79151562  0.91545460     0.96900
C55         C  0.14054793  0.74592650  0.99333914     1.04300
O56         O  0.21514477  0.78637259  0.00058418    -1.12800
O57         O  0.22209676  0.79488993  0.07784468    -0.75300
O58         O  0.19953788  0.81916950  0.05424635    -0.78800
O59         O  0.20616485  0.77325634  0.92356460    -0.79400
C60         C  0.20739742  0.80879349  0.08154219     0.95800
O61         O  0.23552098  0.84923063  0.98654873    -0.77400
O62         O  0.24078694  0.75400552  0.04243568    -0.82600
C63         C  0.27260681  0.77972855  0.97283885     0.98400
C64         C  0.21860842  0.72754717  0.03441516     1.04400
O65         O  0.24603212  0.75774615  0.96471340    -0.78200
C66         C  0.25939735  0.86141638  0.00603128     1.02700
Fe67       Fe  0.19097294  0.80673369  0.49748447     1.65800
Fe68       Fe  0.24619653  0.79434564  0.52729830     1.73200
Fe69       Fe  0.20080968  0.75229683  0.45859336     1.54400
O70         O  0.15441413  0.73927990  0.45913994    -0.82000
O71         O  0.27413262  0.80225257  0.48342873    -0.80300
O72         O  0.15015103  0.76702721  0.50355428    -0.84500
O73         O  0.18555415  0.80584243  0.43982649    -0.79300
O74         O  0.19197511  0.72161605  0.49983713    -0.81100
O75         O  0.26196798  0.84131391  0.52768143    -0.83900
C76         C  0.19702015  0.79882102  0.41285730     0.96900
C77         C  0.13832388  0.74438483  0.48177222     1.04300
O78         O  0.21256142  0.78456327  0.49462759    -1.12800
O79         O  0.21929508  0.78686549  0.57220492    -0.75300
O80         O  0.19367486  0.80986861  0.55542384    -0.78800
O81         O  0.20939310  0.78267294  0.41676746    -0.79400
C82         C  0.20214240  0.79749113  0.57966465     0.95800
O83         O  0.23045893  0.84779041  0.49157314    -0.77400
O84         O  0.23561028  0.74840671  0.53032302    -0.82600
C85         C  0.27138250  0.78015245  0.46440573     0.98400
C86         C  0.21270104  0.72294271  0.52037536     1.04400
O87         O  0.24522320  0.75893549  0.45380183    -0.78200
C88         C  0.25551411  0.85833143  0.50858481     1.02700
Fe89       Fe  0.80585378  0.61662691  0.00584242     1.65800
Fe90       Fe  0.79823240  0.55255089  0.04298881     1.73200
Fe91       Fe  0.74878711  0.54785532  0.97932481     1.54400
O92         O  0.73356762  0.57928735  0.98147068    -0.82000
O93         O  0.80381285  0.52968268  0.00021854    -0.80300
O94         O  0.76708151  0.61791190  0.01610500    -0.84500
O95         O  0.79959475  0.61609488  0.94852723    -0.79300
O96         O  0.72351610  0.52830274  0.02538843    -0.81100
O97         O  0.84467468  0.58639535  0.03788960    -0.83900
C98         C  0.78937780  0.59508483  0.92403342     0.96900
C99         C  0.74136507  0.60331835  0.00047680     1.04300
O100        O  0.78438574  0.57252046  0.00925136    -1.12800
O101        O  0.79310571  0.57528318  0.08659011    -0.75300
O102        O  0.81517989  0.62235112  0.06280655    -0.78800
O103        O  0.77282996  0.56699594  0.93211230    -0.79400
C104        C  0.80579898  0.60408908  0.09027617     0.95800
O105        O  0.84583902  0.61824215  0.99521366    -0.77400
O106        O  0.75383201  0.51462026  0.05204952    -0.82600
C107        C  0.78162297  0.50958257  0.98165270     0.98400
C108        C  0.72724068  0.50983500  0.04480987     1.04400
O109        O  0.75845161  0.51204693  0.97417800    -0.78200
C110        C  0.85921939  0.60813378  0.01497429     1.02700
Fe111      Fe  0.80530680  0.61912458  0.50609390     1.65800
Fe112      Fe  0.79498900  0.55150349  0.53419779     1.73200
Fe113      Fe  0.75423278  0.55414804  0.46391804     1.54400
O114        O  0.73836301  0.58526797  0.46613405    -0.82000
O115        O  0.80617230  0.53387587  0.49041156    -0.80300
O116        O  0.76475140  0.61789979  0.51102502    -0.84500
O117        O  0.80586437  0.62559108  0.44867460    -0.79300
O118        O  0.72269715  0.52871915  0.50306448    -0.81100
O119        O  0.84119080  0.58544045  0.53813326    -0.83900
C120        C  0.80036789  0.60790834  0.42101144     0.96900
C121        C  0.74225164  0.60600809  0.48916841     1.04300
O122        O  0.78483680  0.57507412  0.50151850    -1.12800
O123        O  0.78391344  0.56836936  0.57882743    -0.75300
O124        O  0.80685647  0.61787848  0.56423249    -0.78800
O125        O  0.78515780  0.57899648  0.42369222    -0.79400
C126        C  0.79393346  0.59608153  0.58750968     0.95800
O127        O  0.84703291  0.62278501  0.50088820    -0.77400
O128        O  0.75031272  0.51337910  0.53358667    -0.82600
C129        C  0.78570476  0.51473407  0.46914743     0.98400
C130        C  0.72472582  0.50875659  0.52172573     1.04400
O131        O  0.76429560  0.51873023  0.45766331    -0.78200
C132        C  0.85795109  0.60917555  0.51888783     1.02700
Fe133      Fe  0.61197573  0.81102372  0.00494789     1.65800
Fe134      Fe  0.54661326  0.74836458  0.03054610     1.73200
Fe135      Fe  0.54606973  0.79408527  0.96509574     1.54400
O136        O  0.57577311  0.84166919  0.96775791    -0.82000
O137        O  0.52888825  0.72162258  0.98485424    -0.80300
O138        O  0.60694618  0.84811041  0.01384356    -0.84500
O139        O  0.61704385  0.81903951  0.94754620    -0.79300
O140        O  0.52209286  0.79826987  0.00714491    -0.81100
O141        O  0.58150351  0.73810663  0.02899744    -0.83900
C142        C  0.59939176  0.80657471  0.91988301     0.96900
C143        C  0.59452369  0.85836481  0.99261003     1.04300
O144        O  0.56846807  0.78443157  0.00034384    -1.12800
O145        O  0.56348901  0.77346166  0.07749177    -0.75300
O146        O  0.61177485  0.80630838  0.06252592    -0.78800
O147        O  0.57066350  0.79036267  0.92296372    -0.79400
C148        C  0.59042860  0.79356643  0.08619405     0.95800
O149        O  0.61958049  0.77541638  0.99719633    -0.77400
O150        O  0.50834183  0.75401141  0.03506209    -0.82600
C151        C  0.50794756  0.72250379  0.96746483     0.98400
C152        C  0.50371478  0.77583381  0.02678488     1.04400
O153        O  0.51083659  0.74808827  0.95822185    -0.78200
C154        C  0.60687643  0.74921792  0.01216651     1.02700
Fe155      Fe  0.61172488  0.80997020  0.50373396     1.65800
Fe156      Fe  0.54673491  0.75185048  0.53751832     1.73200
Fe157      Fe  0.54452532  0.79697508  0.47242807     1.54400
O158        O  0.57586163  0.84407183  0.47419695    -0.82000
O159        O  0.52562008  0.72347327  0.49395038    -0.80300
O160        O  0.61123825  0.84938363  0.51404197    -0.84500
O161        O  0.61339541  0.81664375  0.44605879    -0.79300
O162        O  0.52389809  0.80295800  0.51695870    -0.81100
O163        O  0.58050182  0.73945606  0.53421119    -0.83900
C164        C  0.59334238  0.80515277  0.42053367     0.96900
C165        C  0.59760803  0.86034761  0.49625063     1.04300
O166        O  0.56785997  0.78619874  0.50443260    -1.12800
O167        O  0.56757262  0.77955773  0.58226235    -0.75300
O168        O  0.61518927  0.80574089  0.56096292    -0.78800
O169        O  0.56507866  0.79170490  0.42736709    -0.79400
C170        C  0.59602704  0.79633935  0.58741907     0.95800
O171        O  0.61462982  0.77195075  0.49415350    -0.77400
O172        O  0.50885540  0.75830895  0.54368011    -0.82600
C173        C  0.50553136  0.72530408  0.47556356     0.98400
C174        C  0.50445518  0.78021943  0.53514247     1.04400
O175        O  0.50870995  0.75118172  0.46697877    -0.78200
C176        C  0.60346988  0.74771699  0.51315690     1.02700
Fe177      Fe  0.80161181  0.18954782  0.99793425     1.65800
Fe178      Fe  0.74930241  0.20170494  0.03918056     1.73200
Fe179      Fe  0.79084429  0.24685317  0.96989638     1.54400
O180        O  0.83744036  0.26186692  0.96697733    -0.82000
O181        O  0.71823652  0.19403305  0.99903112    -0.80300
O182        O  0.84340320  0.22824508  0.99939991    -0.84500
O183        O  0.80009602  0.18957289  0.93969009    -0.79300
O184        O  0.80081325  0.27501915  0.01421671    -0.81100
O185        O  0.73404480  0.15473359  0.03836539    -0.83900
C186        C  0.78891362  0.20002231  0.91621363     0.96900
C187        C  0.85431978  0.25363507  0.98301543     1.04300
O188        O  0.78063908  0.21242841  0.00210851    -1.12800
O189        O  0.77996516  0.20908068  0.08005982    -0.75300
O190        O  0.80481738  0.18722175  0.05576669    -0.78800
O191        O  0.78155766  0.21974312  0.92453456    -0.79400
C192        C  0.79793178  0.19871563  0.08292057     0.95800
O193        O  0.76213103  0.14839870  0.99644591    -0.77400
O194        O  0.75813948  0.24700697  0.04502911    -0.82600
C195        C  0.71993803  0.21544151  0.97939686     0.98400
C196        C  0.77988098  0.27299224  0.03469500     1.04400
O197        O  0.74549313  0.23787096  0.96895594    -0.78200
C198        C  0.73961046  0.13768970  0.01801940     1.02700
Fe199      Fe  0.79785073  0.18933102  0.49788241     1.65800
Fe200      Fe  0.74379364  0.20396210  0.52658578     1.73200
Fe201      Fe  0.79583551  0.25064741  0.46567050     1.54400
O202        O  0.84116252  0.26236280  0.47295984    -0.82000
O203        O  0.71946468  0.20009422  0.48027592    -0.80300
O204        O  0.84012307  0.22608397  0.50827126    -0.84500
O205        O  0.80602145  0.19315573  0.44064670    -0.79300
O206        O  0.80093732  0.27718551  0.51044978    -0.81100
O207        O  0.72632625  0.15667333  0.52439583    -0.83900
C208        C  0.80096056  0.20661319  0.41417189     0.96900
C209        C  0.85448840  0.25197703  0.49277007     1.04300
O210        O  0.77935001  0.21454033  0.49657107    -1.12800
O211        O  0.76746189  0.20725637  0.57335876    -0.75300
O212        O  0.79188470  0.18316924  0.55563625    -0.78800
O213        O  0.79240698  0.22588009  0.41952344    -0.79400
C214        C  0.78244930  0.19414416  0.58078334     0.95800
O215        O  0.75714201  0.15049336  0.48689941    -0.77400
O216        O  0.75444274  0.24975075  0.53303601    -0.82600
C217        C  0.72514063  0.22297681  0.46063171     0.98400
C218        C  0.77839384  0.27545726  0.52713097     1.04400
O219        O  0.75234631  0.24470175  0.45484690    -0.78200
C220        C  0.73208561  0.13997648  0.50372241     1.02700
Fe221      Fe  0.18094303  0.38127265  0.99904347     1.65800
Fe222      Fe  0.19750624  0.44920712  0.03451565     1.73200
Fe223      Fe  0.24096524  0.44636850  0.96793670     1.54400
O224        O  0.25156307  0.41141867  0.96939369    -0.82000
O225        O  0.19245687  0.47224848  0.99193993    -0.80300
O226        O  0.21738652  0.37536978  0.00628570    -0.84500
O227        O  0.18421192  0.37926438  0.94140984    -0.79300
O228        O  0.26923155  0.46529406  0.01196407    -0.81100
O229        O  0.14996974  0.41930300  0.03281062    -0.83900
C230        C  0.19586790  0.39926470  0.91586195     0.96900
C231        C  0.24217251  0.38719658  0.98851793     1.04300
O232        O  0.20634694  0.42537536  0.00034040    -1.12800
O233        O  0.20238457  0.42624273  0.07756283    -0.75300
O234        O  0.17521106  0.37818986  0.05679961    -0.78800
O235        O  0.21403232  0.42738398  0.92262829    -0.79400
C236        C  0.18897139  0.39756797  0.08260697     0.95800
O237        O  0.14294917  0.38433031  0.99103360    -0.77400
O238        O  0.24385796  0.48420862  0.04002699    -0.82600
C239        C  0.21460437  0.49060251  0.97208127     0.98400
C240        C  0.26891647  0.48590146  0.03110968     1.04400
O241        O  0.23582319  0.48534627  0.96311544    -0.78200
C242        C  0.13301111  0.39837607  0.00997755     1.02700
Fe243      Fe  0.18516261  0.37892069  0.49884881     1.65800
Fe244      Fe  0.19939726  0.44588258  0.53454376     1.73200
Fe245      Fe  0.24301443  0.44538266  0.46643551     1.54400
O246        O  0.25625844  0.41228513  0.46736992    -0.82000
O247        O  0.19191304  0.46730131  0.49221891    -0.80300
O248        O  0.22293097  0.37517322  0.50384385    -0.84500
O249        O  0.18646927  0.37713651  0.44089949    -0.79300
O250        O  0.27183921  0.46579829  0.50966467    -0.81100
O251        O  0.15249346  0.41448314  0.53475517    -0.83900
C252        C  0.19695978  0.39726541  0.41537453     0.96900
C253        C  0.24779755  0.38811670  0.48629332     1.04300
O254        O  0.20911394  0.42311967  0.49978969    -1.12800
O255        O  0.20664664  0.42432004  0.57726396    -0.75300
O256        O  0.18149086  0.37598336  0.55700547    -0.78800
O257        O  0.21558077  0.42532022  0.42182631    -0.79400
C258        C  0.19467842  0.39579291  0.58262645     0.95800
O259        O  0.14558800  0.37938440  0.49333486    -0.77400
O260        O  0.24476523  0.48236796  0.53862806    -0.82600
C261        C  0.21338103  0.48668136  0.47234307     0.98400
C262        C  0.27029380  0.48565128  0.52899120     1.04400
O263        O  0.23520846  0.48271609  0.46219785    -0.78200
C264        C  0.13534988  0.39264805  0.51317884     1.02700
C265        C  0.18933066  0.38984037  0.87658649    -0.03500
C266        C  0.16970270  0.35921890  0.86609573    -0.06100
C267        C  0.16537020  0.35089699  0.82865801    -0.21200
C268        C  0.18106608  0.37289308  0.80126577     0.24500
C269        C  0.20013004  0.40348808  0.81183864    -0.18700
C270        C  0.20420433  0.41181454  0.84887014    -0.08700
C271        C  0.17689909  0.36444744  0.76154561    -0.19000
C272        C  0.20056662  0.37800169  0.73805752    -0.23800
C273        C  0.19857085  0.37762999  0.69710648     0.26600
C274        C  0.22459314  0.39913477  0.67798876    -0.20600
C275        C  0.22347489  0.40358678  0.64031853    -0.10200
C276        C  0.19643667  0.38623406  0.62049357    -0.10700
C277        C  0.17080952  0.36307867  0.63873210    -0.03700
C278        C  0.17175498  0.35890396  0.67692938    -0.18800
H279        H  0.15791667  0.34173072  0.88673254     0.10300
H280        H  0.15024071  0.32722904  0.82110754     0.10400
H281        H  0.21174646  0.42119021  0.79138610     0.10000
H282        H  0.21938023  0.43563263  0.85570860     0.11100
H283        H  0.15419776  0.34829767  0.75183123     0.11200
H284        H  0.22299813  0.39280853  0.74977718     0.13100
H285        H  0.24561666  0.41376570  0.69258814     0.09700
H286        H  0.24357230  0.42150465  0.62681366     0.11700
H287        H  0.14965234  0.34952646  0.62394094     0.08400
H288        H  0.15130936  0.34176163  0.69047452     0.11100
C289        C  0.18822738  0.38817592  0.37632941    -0.03500
C290        C  0.16935099  0.35744033  0.36577803    -0.06100
C291        C  0.16326665  0.34948952  0.32834742    -0.21200
C292        C  0.17638995  0.37205193  0.30099634     0.24500
C293        C  0.19423339  0.40277834  0.31167904    -0.18700
C294        C  0.20007517  0.41071726  0.34873879    -0.08700
C295        C  0.17151528  0.36392098  0.26125410    -0.19000
C296        C  0.19467854  0.37835925  0.23726150    -0.23800
C297        C  0.19218386  0.37762319  0.19638358     0.26600
C298        C  0.21884092  0.39669511  0.17660118    -0.20600
C299        C  0.21771323  0.40166080  0.13908478    -0.10200
C300        C  0.18996435  0.38719623  0.12016342    -0.10700
C301        C  0.16344025  0.36624165  0.13895385    -0.03700
C302        C  0.16444434  0.36160637  0.17698629    -0.18800
H303        H  0.15972654  0.33955135  0.38632943     0.10300
H304        H  0.14907685  0.32570417  0.32070641     0.10400
H305        H  0.20379411  0.42079954  0.29126322     0.10000
H306        H  0.21434850  0.43465647  0.35564964     0.11100
H307        H  0.14898328  0.34678725  0.25214408     0.11200
H308        H  0.21712871  0.39373086  0.24856978     0.13100
H309        H  0.24054478  0.40919199  0.19060465     0.09700
H310        H  0.23845981  0.41780666  0.12503579     0.11700
H311        H  0.14175524  0.35499061  0.12477570     0.08400
H312        H  0.14339081  0.34662037  0.19105863     0.11100
C313        C  0.88801868  0.26998807  0.49749584    -0.03500
C314        C  0.90316303  0.25593250  0.51281559    -0.06100
C315        C  0.93472174  0.27176141  0.51598955    -0.21200
C316        C  0.95213505  0.30220669  0.50443910     0.24500
C317        C  0.93716124  0.31669835  0.48963067    -0.18700
C318        C  0.90534592  0.30065089  0.48609233    -0.08700
C319        C  0.98575797  0.31674740  0.50603070    -0.19000
C320        C  0.00565538  0.34706741  0.50586753    -0.23800
C321        C  0.03905437  0.35933365  0.50682774     0.26600
C322        C  0.05843653  0.38706333  0.52486364    -0.20600
C323        C  0.08978696  0.39806545  0.52723285    -0.10200
C324        C  0.10232426  0.38171015  0.51103717    -0.10700
C325        C  0.08294118  0.35454042  0.49189909    -0.03700
C326        C  0.05180691  0.34354861  0.48974428    -0.18800
H327        H  0.89067869  0.23234106  0.52173106     0.10300
H328        H  0.94564310  0.25996340  0.52725135     0.10400
H329        H  0.94990204  0.33997238  0.47974561     0.10000
H330        H  0.89435998  0.31211703  0.47410823     0.11100
H331        H  0.99455252  0.30131870  0.50876783     0.11200
H332        H  0.99750331  0.36308964  0.50683503     0.13100
H333        H  0.04921786  0.39988703  0.53777318     0.09700
H334        H  0.10415994  0.41929760  0.54167255     0.11700
H335        H  0.09178429  0.34151822  0.47863022     0.08400
H336        H  0.03780725  0.32274677  0.47437280     0.11100
C337        C  0.88798735  0.27354829  0.98268688    -0.03500
C338        C  0.90594167  0.26095933  0.99286709    -0.06100
C339        C  0.93751833  0.27861008  0.99267330    -0.21200
C340        C  0.95223265  0.30955083  0.98313824     0.24500
C341        C  0.93462608  0.32267161  0.97342098    -0.18700
C342        C  0.90265324  0.30467980  0.97289374    -0.08700
C343        C  0.98590392  0.32625651  0.98145069    -0.19000
C344        C  0.00414900  0.35513055  0.99333289    -0.23800
C345        C  0.03776729  0.36851934  0.99573171     0.26600
C346        C  0.05450374  0.38905033  0.02421756    -0.20600
C347        C  0.08561858  0.39936774  0.02884549    -0.10200
C348        C  0.10055002  0.38939452  0.00490108    -0.10700
C349        C  0.08397242  0.37002961  0.97541617    -0.03700
C350        C  0.05317285  0.35993973  0.97073961    -0.18800
H351        H  0.89560181  0.23712497  0.00052917     0.10300
H352        H  0.95059418  0.26797201  0.00008554     0.10400
H353        H  0.94553580  0.34646050  0.96537382     0.10000
H354        H  0.88947292  0.31506420  0.96499555     0.11100
H355        H  0.99604010  0.31265650  0.97391375     0.11200
H356        H  0.99412441  0.36780765  0.00477521     0.13100
H357        H  0.04327108  0.39629988  0.04362967     0.09700
H358        H  0.09777028  0.41453414  0.05159441     0.11700
H359        H  0.09476734  0.36240344  0.95584547     0.08400
H360        H  0.04142286  0.34517696  0.94755189     0.11100
C361        C  0.78401776  0.18948600  0.87733263    -0.03500
C362        C  0.76175182  0.19133428  0.85659996    -0.06100
C363        C  0.75847378  0.18483045  0.81905380    -0.21200
C364        C  0.77767693  0.17683243  0.80084522     0.24500
C365        C  0.79927536  0.17368704  0.82160870    -0.18700
C366        C  0.80221985  0.17972773  0.85974152    -0.08700
C367        C  0.77462718  0.17340613  0.76013942    -0.19000
C368        C  0.79732332  0.17886385  0.73665975    -0.23800
C369        C  0.79440724  0.18310342  0.69655047     0.26600
C370        C  0.80758274  0.17321508  0.66994113    -0.20600
C371        C  0.80416925  0.17691700  0.63213336    -0.10200
C372        C  0.78799303  0.19111455  0.62043201    -0.10700
C373        C  0.77602139  0.20206750  0.64737106    -0.03700
C374        C  0.77921759  0.19818630  0.68473623    -0.18800
H375        H  0.74708176  0.19839090  0.86934052     0.10300
H376        H  0.74150932  0.18722529  0.80385883     0.10400
H377        H  0.81400216  0.16692211  0.80851340     0.10000
H378        H  0.81946560  0.17796526  0.87511048     0.11100
H379        H  0.75328713  0.16952687  0.74862302     0.11200
H380        H  0.81873517  0.18205703  0.74684283     0.13100
H381        H  0.81993042  0.16207926  0.67839028     0.09700
H382        H  0.81391562  0.16845926  0.61215147     0.11700
H383        H  0.76380737  0.21352154  0.63968245     0.08400
H384        H  0.76993725  0.20733512  0.70443773     0.11100
C385        C  0.81088648  0.20031029  0.11971149    -0.03500
C386        C  0.82617589  0.22852355  0.13792366    -0.06100
C387        C  0.83395540  0.23009786  0.17505269    -0.21200
C388        C  0.82582236  0.20342711  0.19520305     0.24500
C389        C  0.81173341  0.17515873  0.17647361    -0.18700
C390        C  0.80449606  0.17369138  0.13886889    -0.08700
C391        C  0.83052894  0.20655785  0.23587443    -0.19000
C392        C  0.81487683  0.18402346  0.26052009    -0.23800
C393        C  0.81385708  0.19062520  0.30039386     0.26600
C394        C  0.80889744  0.16866082  0.32732545    -0.20600
C395        C  0.80537391  0.17383800  0.36462146    -0.10200
C396        C  0.80590910  0.20074515  0.37538947    -0.10700
C397        C  0.81099680  0.22263716  0.34835556    -0.03700
C398        C  0.81492825  0.21770281  0.31149543    -0.18800
H399        H  0.83117864  0.24929992  0.12366146     0.10300
H400        H  0.84493429  0.25219256  0.18858800     0.10400
H401        H  0.80563718  0.15415768  0.19077926     0.10000
H402        H  0.79243983  0.15164539  0.12529757     0.11100
H403        H  0.84529244  0.22957343  0.24623272     0.11200
H404        H  0.80064869  0.16058914  0.25137897     0.13100
H405        H  0.80754158  0.14741451  0.31943949     0.09700
H406        H  0.80145735  0.15653063  0.38480554     0.11700
H407        H  0.81171445  0.24369976  0.35563750     0.08400
H408        H  0.81761474  0.23473197  0.29157564     0.11100
C409        C  0.47607060  0.69675211  0.46954214    -0.03500
C410        C  0.44950751  0.69781971  0.46257602    -0.06100
C411        C  0.42079789  0.67192760  0.46833900    -0.21200
C412        C  0.41816248  0.64457378  0.48111351     0.24500
C413        C  0.44466006  0.64271954  0.48427855    -0.18700
C414        C  0.47323910  0.66851068  0.47869174    -0.08700
C415        C  0.38772659  0.61852290  0.49135896    -0.19000
C416        C  0.38412892  0.59743943  0.51660348    -0.23800
C417        C  0.35445486  0.56984448  0.52503067     0.26600
C418        C  0.35400288  0.54264913  0.53343314    -0.20600
C419        C  0.32642823  0.51533581  0.53779484    -0.10200
C420        C  0.29876040  0.51488183  0.53505567    -0.10700
C421        C  0.29923697  0.54252812  0.52954862    -0.03700
C422        C  0.32686567  0.56978949  0.52419306    -0.18800
H423        H  0.45086328  0.71919868  0.45545115     0.10300
H424        H  0.40072070  0.67376524  0.46480038     0.10400
H425        H  0.44355232  0.62159286  0.49199399     0.10000
H426        H  0.49319336  0.66671279  0.48369280     0.11100
H427        H  0.36791815  0.61692229  0.47808740     0.11200
H428        H  0.40390024  0.59919714  0.53011667     0.13100
H429        H  0.37498597  0.54221257  0.53458353     0.09700
H430        H  0.32665349  0.49426572  0.54155248     0.11700
H431        H  0.27819570  0.54269826  0.52673050     0.08400
H432        H  0.32655038  0.59059298  0.51868248     0.11100
C433        C  0.60779493  0.89314934  0.50143334    -0.03500
C434        C  0.62552302  0.90892340  0.53230206    -0.06100
C435        C  0.63621291  0.94005154  0.53705515    -0.21200
C436        C  0.62996314  0.95636232  0.51079970     0.24500
C437        C  0.61146695  0.94048460  0.48038193    -0.18700
C438        C  0.60039312  0.90913092  0.47584583    -0.08700
C439        C  0.64371621  0.98991247  0.51588050    -0.19000
C440        C  0.65145720  0.00951921  0.48747265    -0.23800
C441        C  0.67004131  0.04328875  0.49188423     0.26600
C442        C  0.68900321  0.06054003  0.46271867    -0.20600
C443        C  0.70868156  0.09199220  0.46647345    -0.10200
C444        C  0.70935879  0.10710757  0.49923217    -0.10700
C445        C  0.68926123  0.09021650  0.52783249    -0.03700
C446        C  0.66988961  0.05852145  0.52432233    -0.18800
H447        H  0.63126787  0.89720955  0.55283769     0.10300
H448        H  0.65013197  0.95162374  0.56089805     0.10400
H449        H  0.60546289  0.95215647  0.46012959     0.10000
H450        H  0.58653487  0.89754367  0.45198806     0.11100
H451        H  0.65074905  0.99889830  0.54356254     0.11200
H452        H  0.64705459  0.00059978  0.45953704     0.13100
H453        H  0.68933851  0.04947463  0.43731394     0.09700
H454        H  0.72364253  0.10450031  0.44379815     0.11700
H455        H  0.68922947  0.10134179  0.55330463     0.08400
H456        H  0.65494844  0.04607163  0.54699352     0.11100
C457        C  0.47800075  0.69376285  0.96455741    -0.03500
C458        C  0.45117209  0.69482802  0.96012452    -0.06100
C459        C  0.42277208  0.66926538  0.96842608    -0.21200
C460        C  0.42047859  0.64203657  0.98123290     0.24500
C461        C  0.44709223  0.64019623  0.98254232    -0.18700
C462        C  0.47544171  0.66574735  0.97445008    -0.08700
C463        C  0.39010817  0.61625753  0.99294429    -0.19000
C464        C  0.38635364  0.59353454  0.01571596    -0.23800
C465        C  0.35608305  0.56702892  0.02580993     0.26600
C466        C  0.35374561  0.53867065  0.03234757    -0.20600
C467        C  0.32535187  0.51242349  0.03774504    -0.10200
C468        C  0.29863309  0.51403731  0.03773766    -0.10700
C469        C  0.30123840  0.54288889  0.03493461    -0.03700
C470        C  0.32965466  0.56912723  0.02853678    -0.18800
H471        H  0.45223781  0.71603720  0.95282048     0.10300
H472        H  0.40265914  0.67125326  0.96647101     0.10400
H473        H  0.44636600  0.61931356  0.99048479     0.10000
H474        H  0.49558125  0.66398308  0.97786777     0.11100
H475        H  0.37014411  0.61632253  0.98271475     0.11200
H476        H  0.40611998  0.59319344  0.02604124     0.13100
H477        H  0.37377084  0.53647259  0.03109428     0.09700
H478        H  0.32410572  0.49051636  0.03978478     0.11700
H479        H  0.28109114  0.54486691  0.03499972     0.08400
H480        H  0.33076621  0.59083777  0.02497402     0.11100
C481        C  0.72028554  0.10408263  0.01995656    -0.03500
C482        C  0.73420289  0.08629071  0.01907637    -0.06100
C483        C  0.71673108  0.05447391  0.01944433    -0.21200
C484        C  0.68490225  0.03961423  0.01960716     0.24500
C485        C  0.67078184  0.05732255  0.02063552    -0.18700
C486        C  0.68841669  0.08939839  0.02124050    -0.08700
C487        C  0.66758526  0.00569529  0.02014383    -0.19000
C488        C  0.64015380  0.98828217  0.00428286    -0.23800
C489        C  0.62551091  0.95440193  0.00294566     0.26600
C490        C  0.60929098  0.93823454  0.97144082    -0.20600
C491        C  0.59822869  0.90673821  0.96826853    -0.10200
C492        C  0.60308815  0.89089526  0.99672439    -0.10700
C493        C  0.61763843  0.90684341  0.02913800    -0.03700
C494        C  0.62861027  0.93814260  0.03227482    -0.18800
H495        H  0.75874846  0.09708111  0.01833982     0.10300
H496        H  0.72815793  0.04137556  0.01902355     0.10400
H497        H  0.64626020  0.04645440  0.02154473     0.10000
H498        H  0.67722268  0.10269975  0.02186812     0.11100
H499        H  0.67921212  0.99458405  0.03156650     0.11200
H500        H  0.62967523  0.99905974  0.98925151     0.13100
H501        H  0.60627942  0.95021316  0.94865095     0.09700
H502        H  0.58688005  0.89505858  0.94310179     0.11700
H503        H  0.62107879  0.89520366  0.05197706     0.08400
H504        H  0.63996206  0.94969499  0.05749222     0.11100
C505        C  0.60703008  0.80396468  0.62576792    -0.03500
C506        C  0.63140019  0.80075602  0.63787891    -0.06100
C507        C  0.63896733  0.80365240  0.67537202    -0.21200
C508        C  0.62301729  0.81086655  0.70114313     0.24500
C509        C  0.59945483  0.81535280  0.68869235    -0.18700
C510        C  0.59131735  0.81156017  0.65142851    -0.08700
C511        C  0.62864035  0.80993950  0.74113742    -0.19000
C512        C  0.62553943  0.82792400  0.76593895    -0.23800
C513        C  0.62439017  0.82269290  0.80632199     0.26600
C514        C  0.63309456  0.84734645  0.83061107    -0.20600
C515        C  0.62736185  0.84227788  0.86846221    -0.10200
C516        C  0.61203027  0.81238950  0.88237461    -0.10700
C517        C  0.60428733  0.78782115  0.85841356    -0.03700
C518        C  0.61074675  0.79291562  0.82078322    -0.18800
H519        H  0.64353489  0.79444071  0.61862768     0.10300
H520        H  0.65689376  0.79965865  0.68439296     0.10400
H521        H  0.58621075  0.82016118  0.70798770     0.10000
H522        H  0.57229502  0.81390763  0.64272242     0.11100
H523        H  0.63456905  0.79329250  0.75045822     0.11200
H524        H  0.62244200  0.84643082  0.75632101     0.13100
H525        H  0.64327609  0.87043112  0.82008047     0.09700
H526        H  0.63295329  0.86148874  0.88645510     0.11700
H527        H  0.59201527  0.76457428  0.86860891     0.08400
H528        H  0.60306752  0.77333542  0.80277174     0.11100
C529        C  0.60239624  0.80788624  0.38119561    -0.03500
C530        C  0.63300173  0.82383901  0.36979943    -0.06100
C531        C  0.64035089  0.82690649  0.33206655    -0.21200
C532        C  0.61721820  0.81455075  0.30536078     0.24500
C533        C  0.58680609  0.79797236  0.31697395    -0.18700
C534        C  0.57952578  0.79480100  0.35418489    -0.08700
C535        C  0.62424427  0.81784272  0.26530678    -0.19000
C536        C  0.60608971  0.82165811  0.24169948    -0.23800
C537        C  0.60436271  0.81602893  0.20148005     0.26600
C538        C  0.57624223  0.80629549  0.18454681    -0.20600
C539        C  0.57214561  0.79923984  0.14723087    -0.10200
C540        C  0.59628193  0.80232051  0.12548988    -0.10700
C541        C  0.62484976  0.81279664  0.14199905    -0.03700
C542        C  0.62882631  0.81932861  0.17996082    -0.18800
H543        H  0.65114329  0.83410508  0.38991770     0.10300
H544        H  0.66397193  0.83938174  0.32372455     0.10400
H545        H  0.56843738  0.78710061  0.29720293     0.10000
H546        H  0.55571072  0.78205990  0.36167215     0.11100
H547        H  0.64254350  0.81470849  0.25538135     0.11200
H548        H  0.58863313  0.82555470  0.25313730     0.13100
H549        H  0.55702168  0.80349839  0.20048132     0.09700
H550        H  0.54993186  0.79142877  0.13530904     0.11700
H551        H  0.64380187  0.81528709  0.12577680     0.08400
H552        H  0.65088029  0.82709358  0.19222241     0.11100
C553        C  0.78424399  0.48506733  0.46331344    -0.03500
C554        C  0.75622091  0.45847819  0.45602858    -0.06100
C555        C  0.75252030  0.42951111  0.46223264    -0.21200
C556        C  0.77667537  0.42657006  0.47592429     0.24500
C557        C  0.80546389  0.45307389  0.47949237    -0.18700
C558        C  0.80913405  0.48194146  0.47344297    -0.08700
C559        C  0.77101112  0.39582982  0.48709278    -0.19000
C560        C  0.78791060  0.39192912  0.51277238    -0.23800
C561        C  0.78366570  0.36166417  0.52299024     0.26600
C562        C  0.80938967  0.35997097  0.53264027    -0.20600
C563        C  0.80720265  0.33166943  0.53787584    -0.10200
C564        C  0.77906719  0.30446411  0.53448490    -0.10700
C565        C  0.75276130  0.30629828  0.52899841    -0.03700
C566        C  0.75506211  0.33466508  0.52273384    -0.18800
H567        H  0.73652110  0.46002709  0.44842575     0.10300
H568        H  0.73025925  0.40945896  0.45844712     0.10400
H569        H  0.82509198  0.45178018  0.48799865     0.10000
H570        H  0.83112644  0.50193255  0.47888132     0.11100
H571        H  0.75196714  0.37594162  0.47446666     0.11200
H572        H  0.80684187  0.41173290  0.52560342     0.13100
H573        H  0.83157617  0.38048419  0.53379260     0.09700
H574        H  0.82785633  0.33095731  0.54222070     0.11700
H575        H  0.73075097  0.28570819  0.52657911     0.08400
H576        H  0.73461164  0.33533438  0.51675483     0.11100
C577        C  0.61912832  0.72981953  0.51119026    -0.03500
C578        C  0.65036151  0.74528357  0.50314148    -0.06100
C579        C  0.66608554  0.72956177  0.50051126    -0.21200
C580        C  0.65107606  0.69780796  0.50513283     0.24500
C581        C  0.61970269  0.68199498  0.51315379    -0.18700
C582        C  0.60389327  0.69798301  0.51647279    -0.08700
C583        C  0.66986343  0.68301510  0.50361391    -0.19000
C584        C  0.65958969  0.65347009  0.49518481    -0.23800
C585        C  0.68042664  0.64083571  0.49404167     0.26600
C586        C  0.67434585  0.61644916  0.47029616    -0.20600
C587        C  0.69424337  0.60492347  0.46844029    -0.10200
C588        C  0.72046908  0.61738299  0.49067000    -0.10700
C589        C  0.72602771  0.64130711  0.51495470    -0.03700
C590        C  0.70629616  0.65273612  0.51676426    -0.18800
H591        H  0.66287456  0.76981633  0.49929665     0.10300
H592        H  0.69026115  0.74239203  0.49472677     0.10400
H593        H  0.60757442  0.65757161  0.51765166     0.10000
H594        H  0.57981046  0.68549454  0.52272234     0.11100
H595        H  0.69411852  0.69807733  0.50781953     0.11200
H596        H  0.63598000  0.63871930  0.48726538     0.13100
H597        H  0.65440922  0.60660971  0.45275358     0.09700
H598        H  0.68913981  0.58636688  0.44960928     0.11700
H599        H  0.74576074  0.65134475  0.53282776     0.08400
H600        H  0.71125441  0.67067884  0.53647039     0.11100
C601        C  0.77868300  0.30121885  0.04093335    -0.03500
C602        C  0.75054133  0.29960344  0.04544210    -0.06100
C603        C  0.74787778  0.32537993  0.03905496    -0.21200
C604        C  0.77322016  0.35313452  0.02796187     0.24500
C605        C  0.80188914  0.35548367  0.02719806    -0.18700
C606        C  0.80455273  0.32979557  0.03353968    -0.08700
C607        C  0.76896524  0.37893849  0.01676787    -0.19000
C608        C  0.78709164  0.40033240  0.99204728    -0.23800
C609        C  0.78404637  0.42708434  0.98224578     0.26600
C610        C  0.81040238  0.45479898  0.97366157    -0.20600
C611        C  0.80925553  0.48159276  0.96981384    -0.10200
C612        C  0.78154603  0.48101070  0.97340811    -0.10700
C613        C  0.75467092  0.45270590  0.97779905    -0.03700
C614        C  0.75591155  0.42596794  0.98260905    -0.18800
H615        H  0.73014638  0.27791481  0.05092055     0.10300
H616        H  0.72563833  0.32314039  0.04063379     0.10400
H617        H  0.82221811  0.37688518  0.02063857     0.10000
H618        H  0.82663358  0.33188508  0.03031613     0.11100
H619        H  0.74991183  0.37983500  0.02866926     0.11200
H620        H  0.80608511  0.39938331  0.98005455     0.13100
H621        H  0.83226197  0.45613674  0.97244542     0.09700
H622        H  0.83031770  0.50310698  0.96631756     0.11700
H623        H  0.73298823  0.45157797  0.98046032     0.08400
H624        H  0.73498789  0.40470334  0.98770841     0.11100
C625        C  0.62269433  0.73145046  0.01039383    -0.03500
C626        C  0.65272458  0.74536682  0.99729732    -0.06100
C627        C  0.66838879  0.72945304  0.99689919    -0.21200
C628        C  0.65445729  0.69910111  0.00909310     0.24500
C629        C  0.62422971  0.68485726  0.02177102    -0.18700
C630        C  0.60853699  0.70092869  0.02243056    -0.08700
C631        C  0.67300618  0.68405305  0.00964810    -0.19000
C632        C  0.66163149  0.65360456  0.01046693    -0.23800
C633        C  0.68167692  0.64017511  0.00964723     0.26600
C634        C  0.67138149  0.61159042  0.99295222    -0.20600
C635        C  0.69053871  0.59934205  0.99004736    -0.10200
C636        C  0.72027422  0.61530831  0.00429826    -0.10700
C637        C  0.73003336  0.64334352  0.02233240    -0.03700
C638        C  0.71100299  0.65556873  0.02507647    -0.18800
H639        H  0.66442382  0.76882748  0.98789007     0.10300
H640        H  0.69168310  0.74105042  0.98713361     0.10400
H641        H  0.61289592  0.66170331  0.03208325     0.10000
H642        H  0.58541700  0.68954226  0.03271250     0.11100
H643        H  0.69746226  0.69905143  0.00736695     0.11200
H644        H  0.63722821  0.63810919  0.00916798     0.13100
H645        H  0.64871685  0.59905862  0.98131843     0.09700
H646        H  0.68215975  0.57753522  0.97640693     0.11700
H647        H  0.75260665  0.65612179  0.03414707     0.08400
H648        H  0.71934431  0.67704939  0.03945498     0.11100
C649        C  0.79620234  0.60322175  0.88450857    -0.03500
C650        C  0.81069183  0.63377768  0.87248717    -0.06100
C651        C  0.81495592  0.64065958  0.83472409    -0.21200
C652        C  0.80448825  0.61713782  0.80844110     0.24500
C653        C  0.79142747  0.58677816  0.82060898    -0.18700
C654        C  0.78725482  0.57992206  0.85807117    -0.08700
C655        C  0.80728739  0.62419764  0.76838819    -0.19000
C656        C  0.78538378  0.60538871  0.74468200    -0.23800
C657        C  0.78717009  0.60712143  0.70373101     0.26600
C658        C  0.76316328  0.58329154  0.68406743    -0.20600
C659        C  0.76492895  0.58080834  0.64605184    -0.10200
C660        C  0.79058110  0.60237668  0.62646469    -0.10700
C661        C  0.81385372  0.62748092  0.64546253    -0.03700
C662        C  0.81231039  0.62977431  0.68392410    -0.18800
H663        H  0.81813055  0.65226894  0.89214634     0.10300
H664        H  0.82559625  0.66427347  0.82599048     0.10400
H665        H  0.78431651  0.56820225  0.80113845     0.10000
H666        H  0.77662960  0.55617835  0.86625171     0.11100
H667        H  0.82730155  0.64479930  0.75886760     0.11200
H668        H  0.76493304  0.58618700  0.75615209     0.13100
H669        H  0.74340745  0.56563366  0.69837260     0.09700
H670        H  0.74653981  0.56135025  0.63201830     0.11700
H671        H  0.83392833  0.64433998  0.63090903     0.08400
H672        H  0.83122268  0.64866541  0.69785498     0.11100
C673        C  0.81093352  0.61637309  0.12815899    -0.03500
C674        C  0.83935466  0.64104345  0.13867482    -0.06100
C675        C  0.84604003  0.64866585  0.17603416    -0.21200
C676        C  0.82400905  0.63253533  0.20314377     0.24500
C677        C  0.79505391  0.60903243  0.19231368    -0.18700
C678        C  0.78872313  0.60078889  0.15524219    -0.08700
C679        C  0.83214419  0.63759546  0.24276765    -0.19000
C680        C  0.81336023  0.63857694  0.26801522    -0.23800
C681        C  0.81669835  0.63582625  0.30821133     0.26600
C682        C  0.80661763  0.65005352  0.33304406    -0.20600
C683        C  0.80390794  0.64303026  0.37068506    -0.10200
C684        C  0.81025627  0.62086046  0.38380324    -0.10700
C685        C  0.82162387  0.60763215  0.35927747    -0.03700
C686        C  0.82519878  0.61532181  0.32188519    -0.18800
H687        H  0.85697515  0.65310670  0.11828524     0.10300
H688        H  0.86859899  0.66665162  0.18386675     0.10400
H689        H  0.77786356  0.59585665  0.21275158     0.10000
H690        H  0.76674030  0.58154874  0.14779700     0.11100
H691        H  0.85319239  0.63897759  0.25143065     0.11200
H692        H  0.79370017  0.63973732  0.25877245     0.13100
H693        H  0.79961660  0.66565332  0.32304176     0.09700
H694        H  0.79469050  0.65318271  0.38902216     0.11700
H695        H  0.82642861  0.59028716  0.36880058     0.08400
H696        H  0.83242798  0.60349598  0.30333281     0.11100
C697        C  0.47459089  0.77780742  0.54056050    -0.03500
C698        C  0.44779056  0.75051557  0.53142885    -0.06100
C699        C  0.42083889  0.75061684  0.52384007    -0.21200
C700        C  0.42017377  0.77797609  0.52610246     0.24500
C701        C  0.44629096  0.80455358  0.53836218    -0.18700
C702        C  0.47328174  0.80459829  0.54498606    -0.08700
C703        C  0.39331224  0.78038706  0.51527104    -0.19000
C704        C  0.37273948  0.76279033  0.48943507    -0.23800
C705        C  0.34804810  0.76831797  0.47693958     0.26600
C706        C  0.32016395  0.74375927  0.46470225    -0.20600
C707        C  0.29563184  0.74802386  0.45666827    -0.10200
C708        C  0.29866602  0.77703167  0.46051084    -0.10700
C709        C  0.32744901  0.80202622  0.46929998    -0.03700
C710        C  0.35182625  0.79776536  0.47732328    -0.18800
H711        H  0.44826316  0.72962869  0.52743970     0.10300
H712        H  0.40088354  0.72949781  0.51544957     0.10400
H713        H  0.44633921  0.82585599  0.54074315     0.10000
H714        H  0.49367756  0.82604157  0.55148630     0.11100
H715        H  0.39165954  0.79897259  0.52765708     0.11200
H716        H  0.37375178  0.74378468  0.47724664     0.13100
H717        H  0.31682103  0.72093297  0.46336430     0.09700
H718        H  0.27374719  0.72824281  0.45023515     0.11700
H719        H  0.33070196  0.82474623  0.47214388     0.08400
H720        H  0.37339381  0.81754747  0.48469288     0.11100
C721        C  0.21441114  0.51605902  0.46606320    -0.03500
C722        C  0.24214628  0.54313025  0.45969291    -0.06100
C723        C  0.24459406  0.57165888  0.46530545    -0.21200
C724        C  0.21949195  0.57357930  0.47768151     0.24500
C725        C  0.19112392  0.54655079  0.48044875    -0.18700
C726        C  0.18864809  0.51819552  0.47471774    -0.08700
C727        C  0.22365542  0.60387130  0.48806181    -0.19000
C728        C  0.20556825  0.60717077  0.51252673    -0.23800
C729        C  0.20849146  0.63712126  0.52105792     0.26600
C730        C  0.18194262  0.63842402  0.52630709    -0.20600
C731        C  0.18344273  0.66658082  0.52942046    -0.10200
C732        C  0.21161185  0.69392422  0.52840135    -0.10700
C733        C  0.23839940  0.69251297  0.52682362    -0.03700
C734        C  0.23685384  0.66430560  0.52281483    -0.18800
H735        H  0.26243928  0.54230583  0.45313245     0.10300
H736        H  0.26654767  0.59218696  0.46208086     0.10400
H737        H  0.17083976  0.54704414  0.48792049     0.10000
H738        H  0.16679841  0.49781140  0.47929669     0.11100
H739        H  0.24250762  0.62403510  0.47569122     0.11200
H740        H  0.18668734  0.58721505  0.52510072     0.13100
H741        H  0.15988883  0.61773988  0.52562853     0.09700
H742        H  0.16245368  0.66707086  0.53054394     0.11700
H743        H  0.26038623  0.71325258  0.52575575     0.08400
H744        H  0.25776821  0.66385829  0.51997716     0.11100
C745        C  0.89127589  0.62158340  0.51700332    -0.03500
C746        C  0.90669496  0.61557773  0.54478292    -0.06100
C747        C  0.93829119  0.62816387  0.54290920    -0.21200
C748        C  0.95507849  0.64646646  0.51289705     0.24500
C749        C  0.93953369  0.65217023  0.48490716    -0.18700
C750        C  0.90808066  0.63996604  0.48703446    -0.08700
C751        C  0.98886669  0.66106165  0.51308322    -0.19000
C752        C  0.00638424  0.67129038  0.48255972    -0.23800
C753        C  0.04029034  0.68845177  0.48368811     0.26600
C754        C  0.05679751  0.68817522  0.45278476    -0.20600
C755        C  0.08869531  0.70551195  0.45238501    -0.10200
C756        C  0.10472024  0.72405123  0.48263039    -0.10700
C757        C  0.08814348  0.72429391  0.51349840    -0.03700
C758        C  0.05640336  0.70671946  0.51408469    -0.18800
H759        H  0.89442285  0.60165381  0.56832055     0.10300
H760        H  0.94970044  0.62369114  0.56508473     0.10400
H761        H  0.95162634  0.66681034  0.46183866     0.10000
H762        H  0.89687962  0.64498477  0.46512143     0.11100
H763        H  0.99963948  0.66313707  0.53958016     0.11200
H764        H  0.99568009  0.66665042  0.45562165     0.13100
H765        H  0.04495195  0.67461454  0.42879234     0.09700
H766        H  0.10075368  0.70506048  0.42804329     0.11700
H767        H  0.09973718  0.73841233  0.53722282     0.08400
H768        H  0.04457560  0.70834163  0.53794437     0.11100
C769        C  0.29947659  0.77632845  0.96696651    -0.03500
C770        C  0.29588267  0.74720092  0.96160297    -0.06100
C771        C  0.32029688  0.74241794  0.96764586    -0.21200
C772        C  0.34853554  0.76658037  0.97940197     0.24500
C773        C  0.35285569  0.79620171  0.98108610    -0.18700
C774        C  0.32860474  0.80099348  0.97502109    -0.08700
C775        C  0.37300390  0.76050388  0.99055383    -0.19000
C776        C  0.39321080  0.77699842  0.01714162    -0.23800
C777        C  0.42011025  0.77441864  0.02625126     0.26600
C778        C  0.42018449  0.74681402  0.02336459    -0.20600
C779        C  0.44724563  0.74649095  0.02841182    -0.10200
C780        C  0.47458702  0.77382631  0.03535609    -0.10700
C781        C  0.47393255  0.80084383  0.04092510    -0.03700
C782        C  0.44684529  0.80101409  0.03692453    -0.18800
H783        H  0.27370454  0.72765634  0.95556125     0.10300
H784        H  0.31660710  0.71950564  0.96535496     0.10400
H785        H  0.37476988  0.81566378  0.98816447     0.10000
H786        H  0.33228481  0.82377988  0.97891413     0.11100
H787        H  0.37421773  0.74212761  0.97680897     0.11200
H788        H  0.39145602  0.79502424  0.03101555     0.13100
H789        H  0.39966430  0.72573898  0.01623587     0.09700
H790        H  0.44725605  0.72541520  0.02393100     0.11700
H791        H  0.49478554  0.82224453  0.04603578     0.08400
H792        H  0.44722772  0.82246346  0.03978016     0.11100
C793        C  0.22147596  0.69997136  0.03840101    -0.03500
C794        C  0.25036546  0.70282427  0.04018322    -0.06100
C795        C  0.25395014  0.67774251  0.03231590    -0.21200
C796        C  0.22882101  0.64945084  0.02219561     0.24500
C797        C  0.19966406  0.64593846  0.02369512    -0.18700
C798        C  0.19606042  0.67088514  0.03166501    -0.08700
C799        C  0.23352844  0.62408424  0.00991828    -0.19000
C800        C  0.21535151  0.60306810  0.98478220    -0.23800
C801        C  0.21731725  0.57569361  0.97458572     0.26600
C802        C  0.19040330  0.54888995  0.96479899    -0.20600
C803        C  0.19008173  0.52140310  0.96015218    -0.10200
C804        C  0.21687371  0.52025825  0.96408461    -0.10700
C805        C  0.24444123  0.54767688  0.96993749    -0.03700
C806        C  0.24464672  0.57516498  0.97563599    -0.18800
H807        H  0.27048737  0.72493258  0.04489652     0.10300
H808        H  0.27659631  0.68091523  0.03207193     0.10400
H809        H  0.17959039  0.62409797  0.01779538     0.10000
H810        H  0.17346373  0.66778464  0.03034369     0.11100
H811        H  0.25252253  0.62298923  0.02161688     0.11200
H812        H  0.19664365  0.60464537  0.97299683     0.13100
H813        H  0.16914195  0.54875044  0.96319140     0.09700
H814        H  0.16847814  0.50058687  0.95580152     0.11700
H815        H  0.26540245  0.54744522  0.97295508     0.08400
H816        H  0.26600893  0.59569104  0.98186074     0.11100
C817        C  0.89287299  0.62336094  0.01145661    -0.03500
C818        C  0.90801106  0.64727335  0.98587763    -0.06100
C819        C  0.93964493  0.66366452  0.98376392    -0.21200
C820        C  0.95716076  0.65638346  0.00660080     0.24500
C821        C  0.94230067  0.63207379  0.03173191    -0.18700
C822        C  0.91039174  0.61576122  0.03422162    -0.08700
C823        C  0.99075802  0.67607206  0.00483715    -0.14200
C824        C  0.01026919  0.66607396  0.01099938    -0.23800
C825        C  0.04370925  0.68662502  0.00726981     0.26600
C826        C  0.06157049  0.67503635  0.99347250    -0.20600
C827        C  0.09297154  0.69424771  0.98870489    -0.10200
C828        C  0.10725608  0.72537875  0.99832512    -0.10700
C829        C  0.08940035  0.73671654  0.01312089    -0.03700
C830        C  0.05802012  0.71761292  0.01744908    -0.18800
H831        H  0.89544572  0.65388025  0.96780563     0.10300
H832        H  0.95052694  0.68232815  0.96427207     0.10400
H833        H  0.95528441  0.62633553  0.05024192     0.10000
H834        H  0.89950698  0.59767188  0.05439875     0.11100
H835        H  0.99970996  0.69947671  0.99570220     0.11200
H836        H  0.00153231  0.64199138  0.01636338     0.13100
H837        H  0.05111200  0.65119601  0.98573275     0.09700
H838        H  0.10606684  0.68468121  0.97758975     0.11700
H839        H  0.09962946  0.76046408  0.02116546     0.08400
H840        H  0.04502833  0.72708262  0.02913282     0.11100
C841        C  0.19481207  0.79727969  0.87578546    -0.03500
C842        C  0.19155491  0.82179303  0.86363803    -0.06100
C843        C  0.18977313  0.82653804  0.82578652    -0.21200
C844        C  0.19055087  0.80650696  0.79960348     0.24500
C845        C  0.19425316  0.78234784  0.81193497    -0.18700
C846        C  0.19625659  0.77777758  0.84938602    -0.08700
C847        C  0.18918189  0.81172606  0.75945493    -0.19000
C848        C  0.17702475  0.78821288  0.73539698    -0.23800
C849        C  0.18073468  0.79116373  0.69474592     0.26600
C850        C  0.17864460  0.76622829  0.67539718    -0.20600
C851        C  0.18457199  0.76819100  0.63775247    -0.10200
C852        C  0.19206051  0.79491930  0.61824701    -0.10700
C853        C  0.19256833  0.81944443  0.63690874    -0.03700
C854        C  0.18721152  0.81772255  0.67507655    -0.18800
H855        H  0.19067594  0.83739503  0.88329441     0.10300
H856        H  0.18750900  0.84565558  0.81695061     0.10400
H857        H  0.19630073  0.76719971  0.79266372     0.10000
H858        H  0.19893528  0.75877487  0.85761938     0.11100
H859        H  0.19960913  0.83509964  0.74977590     0.11200
H860        H  0.16594243  0.76509668  0.74619879     0.13100
H861        H  0.17354546  0.74545830  0.68974300     0.09700
H862        H  0.18390616  0.74892954  0.62390985     0.11700
H863        H  0.19841073  0.84032561  0.62233945     0.08400
H864        H  0.18841924  0.83715991  0.68899070     0.11100
C865        C  0.19464576  0.80819041  0.37516541    -0.03500
C866        C  0.16693224  0.80419982  0.36224173    -0.06100
C867        C  0.16299522  0.80753167  0.32468546    -0.21200
C868        C  0.18697141  0.81585292  0.29974590     0.24500
C869        C  0.21524662  0.82156157  0.31316008    -0.18700
C870        C  0.21890770  0.81741773  0.35045772    -0.08700
C871        C  0.18098645  0.81426494  0.25958406    -0.19000
C872        C  0.20243122  0.83202783  0.23501195    -0.23800
C873        C  0.19877419  0.82575313  0.19487865     0.26600
C874        C  0.21287584  0.85010256  0.16989030    -0.20600
C875        C  0.21349988  0.84446076  0.13222041    -0.10200
C876        C  0.20092199  0.81439758  0.11926219    -0.10700
C877        C  0.18618049  0.79000667  0.14401108    -0.03700
C878        C  0.18473566  0.79559787  0.18146730    -0.18800
H879        H  0.14778190  0.79663099  0.38075356     0.10300
H880        H  0.14091965  0.80265881  0.31488532     0.10400
H881        H  0.23396560  0.82728998  0.29454516     0.10000
H882        H  0.24040861  0.82039037  0.35983607     0.11100
H883        H  0.15860308  0.79701454  0.24986335     0.11200
H884        H  0.22386056  0.85110706  0.24461340     0.13100
H885        H  0.22419132  0.87349081  0.17969875     0.09700
H886        H  0.22549592  0.86357106  0.11355786     0.11700
H887        H  0.17676410  0.76667654  0.13451551     0.08400
H888        H  0.17436092  0.77637056  0.20018711     0.11100
C889        C  0.51665265  0.30144814  0.45477813    -0.03500
C890        C  0.51694822  0.32923932  0.45310682    -0.06100
C891        C  0.54411386  0.35696158  0.45729499    -0.21200
C892        C  0.57143677  0.35747434  0.46398714     0.24500
C893        C  0.57164993  0.32987115  0.46235686    -0.18700
C894        C  0.54444222  0.30206704  0.45737568    -0.08700
C895        C  0.59868855  0.38711710  0.47390288    -0.19000
C896        C  0.62070466  0.38980259  0.49688908    -0.23800
C897        C  0.64635982  0.42001108  0.50883241     0.26600
C898        C  0.67465951  0.42305420  0.51707033    -0.20600
C899        C  0.69989581  0.45183521  0.52486292    -0.10200
C900        C  0.69721104  0.47807888  0.52463553    -0.10700
C901        C  0.66835146  0.47461127  0.51931819    -0.03700
C902        C  0.64316241  0.44589303  0.51177451    -0.18800
H903        H  0.49583261  0.32941781  0.45128139     0.10300
H904        H  0.54343150  0.37794593  0.45781453     0.10400
H905        H  0.59255054  0.32958303  0.46614597     0.10000
H906        H  0.54484669  0.28097260  0.45887088     0.11100
H907        H  0.59946179  0.40758747  0.46371824     0.11200
H908        H  0.62027172  0.36945762  0.50692477     0.13100
H909        H  0.67761478  0.40340059  0.51560931     0.09700
H910        H  0.72190201  0.45379979  0.52844595     0.11700
H911        H  0.66553657  0.49437401  0.51922563     0.08400
H912        H  0.62138063  0.44421586  0.50741086     0.11100
C913        C  0.69888191  0.22588849  0.44960229    -0.03500
C914        C  0.69968125  0.25361244  0.45584642    -0.06100
C915        C  0.67258663  0.25401120  0.46034902    -0.21200
C916        C  0.64433800  0.22674192  0.45753914     0.24500
C917        C  0.64374397  0.19994334  0.44646294    -0.18700
C918        C  0.67072653  0.19938564  0.44305782    -0.08700
C919        C  0.61514483  0.22453108  0.46814856    -0.19000
C920        C  0.61267472  0.24196693  0.49449484    -0.23800
C921        C  0.58266153  0.23615542  0.50807081     0.26600
C922        C  0.57926642  0.26068736  0.51957985    -0.20600
C923        C  0.55051398  0.25590130  0.52906672    -0.10200
C924        C  0.52466474  0.22642351  0.52738924    -0.10700
C925        C  0.52868396  0.20161112  0.51915342    -0.03700
C926        C  0.55732258  0.20639957  0.50968769    -0.18800
H927        H  0.72113998  0.27441662  0.46068557     0.10300
H928        H  0.67384675  0.27533381  0.46745167     0.10400
H929        H  0.62227358  0.17875805  0.44336378     0.10000
H930        H  0.66949100  0.17772368  0.43816026     0.11100
H931        H  0.59458562  0.20592023  0.45605294     0.11200
H932        H  0.63296469  0.26088216  0.50659567     0.13100
H933        H  0.59855330  0.28375669  0.51932352     0.09700
H934        H  0.54824378  0.27557283  0.53511905     0.11700
H935        H  0.50937403  0.17858439  0.51798475     0.08400
H936        H  0.55939714  0.18676920  0.50277663     0.11100
C937        C  0.27766948  0.89161518  0.50595029    -0.03500
C938        C  0.30700957  0.90459971  0.52122343    -0.06100
C939        C  0.32749452  0.93613402  0.51861637    -0.21200
C940        C  0.31886253  0.95526534  0.50124426     0.24500
C941        C  0.28991501  0.94213517  0.48498566    -0.18700
C942        C  0.26959684  0.91077455  0.48737602    -0.08700
C943        C  0.33992272  0.98888387  0.50067544    -0.19000
C944        C  0.32927479  0.00821428  0.50381252    -0.23800
C945        C  0.34826364  0.04202383  0.50370095     0.26600
C946        C  0.33616133  0.05853961  0.52007358    -0.20600
C947        C  0.35139696  0.09028006  0.51792141    -0.10200
C948        C  0.37910126  0.10649703  0.49880058    -0.10700
C949        C  0.39174609  0.09006432  0.48306269    -0.03700
C950        C  0.37648188  0.05804524  0.48554157    -0.18800
H951        H  0.31409855  0.89044085  0.53527400     0.10300
H952        H  0.34982053  0.94570424  0.53097313     0.10400
H953        H  0.28291456  0.95609091  0.47028577     0.10000
H954        H  0.24741003  0.90159242  0.47477224     0.11100
H955        H  0.36425079  0.99764854  0.49996917     0.11200
H956        H  0.30504744  0.99871722  0.50826564     0.13100
H957        H  0.31444364  0.04675186  0.53416923     0.09700
H958        H  0.34092310  0.10202084  0.53053166     0.11700
H959        H  0.41304389  0.10186430  0.46813609     0.08400
H960        H  0.38618846  0.04593040  0.47207937     0.11100
C961        C  0.26677256  0.37362787  0.48803927    -0.03500
C962        C  0.25312076  0.34281427  0.49861840    -0.06100
C963        C  0.27011188  0.32840785  0.50106725    -0.21200
C964        C  0.30134457  0.34439228  0.49365785     0.24500
C965        C  0.31535767  0.37533663  0.48322129    -0.18700
C966        C  0.29810301  0.38979306  0.48019666    -0.08700
C967        C  0.31751415  0.32697326  0.49480807    -0.19000
C968        C  0.34736007  0.33900846  0.50190029    -0.23800
C969        C  0.36130194  0.31936617  0.50314882     0.26600
C970        C  0.38533123  0.32620645  0.52754064    -0.20600
C971        C  0.39738728  0.30677964  0.53022915    -0.10200
C972        C  0.38575234  0.28029946  0.50826902    -0.10700
C973        C  0.36248559  0.27424675  0.48295587    -0.03700
C974        C  0.35055863  0.29353888  0.48029406    -0.18800
H975        H  0.22904898  0.32956796  0.50465303     0.10300
H976        H  0.25869862  0.30449694  0.50884154     0.10400
H977        H  0.33931628  0.38810078  0.47658404     0.10000
H978        H  0.30925208  0.41358082  0.47202750     0.11100
H979        H  0.30343066  0.30234610  0.49161415     0.11200
H980        H  0.36127606  0.36304661  0.50897063     0.13100
H981        H  0.39426795  0.34617757  0.54513865     0.09700
H982        H  0.41549404  0.31227010  0.54976234     0.11700
H983        H  0.35330179  0.25443099  0.46508193     0.08400
H984        H  0.33291920  0.28816832  0.46012240     0.11100
C985        C  0.39573046  0.19814114  0.87909182    -0.03500
C986        C  0.36771760  0.19406572  0.86696880    -0.06100
C987        C  0.36121889  0.19236533  0.82912103    -0.21200
C988        C  0.38226772  0.19393689  0.80295073     0.24500
C989        C  0.41032104  0.19831333  0.81522803    -0.18700
C990        C  0.41691252  0.20034249  0.85268811    -0.08700
C991        C  0.37574259  0.19269414  0.76285357    -0.19000
C992        C  0.38655183  0.18020230  0.73885882    -0.23800
C993        C  0.38764120  0.18412195  0.69822467     0.26600
C994        C  0.40941613  0.18050857  0.67884508    -0.20600
C995        C  0.41413284  0.18704853  0.64136150    -0.10200
C996        C  0.39664229  0.19662583  0.62207853    -0.10700
C997        C  0.37354379  0.19857909  0.64067911    -0.03700
C998        C  0.36920355  0.19262562  0.67866304    -0.18800
H999        H  0.35104940  0.19253266  0.88664509     0.10300
H1000       H  0.33966382  0.18952148  0.82027003     0.10400
H1001       H  0.42759244  0.20083810  0.79587943     0.10000
H1002       H  0.43875369  0.20357481  0.86093616     0.11100
H1003       H  0.36337219  0.20353036  0.75323148     0.11200
H1004       H  0.39796361  0.16872587  0.74980899     0.13100
H1005       H  0.42378984  0.17380318  0.69308720     0.09700
H1006       H  0.43193069  0.18518802  0.62748440     0.11700
H1007       H  0.35982702  0.20597745  0.62622202     0.08400
H1008       H  0.35176969  0.19504145  0.69250190     0.11100
C1009       C  0.38472768  0.19363361  0.12205264    -0.03500
C1010       C  0.39363326  0.17440300  0.13827218    -0.06100
C1011       C  0.38736535  0.16626397  0.17528493    -0.21200
C1012       C  0.37266331  0.17772713  0.19720855     0.24500
C1013       C  0.36250339  0.19602280  0.18040449    -0.18700
C1014       C  0.36843142  0.20380062  0.14297209    -0.08700
C1015       C  0.37101147  0.17178589  0.23761064    -0.19000
C1016       C  0.36431233  0.18649585  0.26361983    -0.23800
C1017       C  0.37090583  0.18525420  0.30337406     0.26600
C1018       C  0.35390938  0.18958140  0.33075117    -0.20600
C1019       C  0.36186162  0.19132081  0.36813871    -0.10200
C1020       C  0.38747017  0.18956766  0.37856583    -0.10700
C1021       C  0.40409102  0.18479892  0.35114319    -0.03700
C1022       C  0.39598040  0.18268136  0.31415067    -0.18800
H1023       H  0.40633062  0.16644038  0.12250265     0.10300
H1024       H  0.39537470  0.15207529  0.18725873     0.10400
H1025       H  0.35072099  0.20502042  0.19598593     0.10000
H1026       H  0.36159288  0.21887896  0.13083767     0.11100
H1027       H  0.37829653  0.15609583  0.24664264     0.11200
H1028       H  0.35557155  0.20123580  0.25597158     0.13100
H1029       H  0.33470530  0.19200041  0.32313110     0.09700
H1030       H  0.34867839  0.19506242  0.38866815     0.11700
H1031       H  0.42385291  0.18317494  0.35822951     0.08400
H1032       H  0.41030363  0.18036808  0.29397631     0.11100
C1033       C  0.52220290  0.30392501  0.97582615    -0.03500
C1034       C  0.54804754  0.30094835  0.97216150    -0.06100
C1035       C  0.57700033  0.32534730  0.98131101    -0.21200
C1036       C  0.58062988  0.35307098  0.99443531     0.24500
C1037       C  0.55520730  0.35693986  0.99451055    -0.18700
C1038       C  0.52639725  0.33268642  0.98536550    -0.08700
C1039       C  0.61097836  0.37758527  0.00782761    -0.19000
C1040       C  0.61413917  0.39804371  0.03388392    -0.23800
C1041       C  0.64376602  0.42521776  0.04421416     0.26600
C1042       C  0.64418150  0.45229316  0.05330268    -0.20600
C1043       C  0.67172431  0.47967431  0.05761364    -0.10200
C1044       C  0.69953366  0.48047156  0.05390730    -0.10700
C1045       C  0.69910687  0.45276455  0.04897435    -0.03700
C1046       C  0.67142875  0.42535012  0.04367371    -0.18800
H1047       H  0.54567777  0.27910613  0.96498926     0.10300
H1048       H  0.59631019  0.32198407  0.98009901     0.10400
H1049       H  0.55730264  0.37848925  0.00248040     0.10000
H1050       H  0.50710460  0.33597266  0.98798892     0.11100
H1051       H  0.63105342  0.37878904  0.99583151     0.11200
H1052       H  0.59394910  0.39647973  0.04602616     0.13100
H1053       H  0.62317529  0.45272313  0.05447906     0.09700
H1054       H  0.67132718  0.50066099  0.06129138     0.11700
H1055       H  0.72019024  0.45269560  0.04604055     0.08400
H1056       H  0.67179047  0.40460104  0.03792649     0.11100
C1057       C  0.51770525  0.22278463  0.04385207    -0.03500
C1058       C  0.54436334  0.25164341  0.04360474    -0.06100
C1059       C  0.57264074  0.25429539  0.03676488    -0.21200
C1060       C  0.57480689  0.22820677  0.03005014     0.24500
C1061       C  0.54854438  0.19924468  0.03377619    -0.18700
C1062       C  0.52030609  0.19659588  0.04043269    -0.08700
C1063       C  0.60452468  0.23191054  0.01860809    -0.19000
C1064       C  0.60672643  0.21185246  0.99619672    -0.23800
C1065       C  0.63606706  0.21434444  0.98546718     0.26600
C1066       C  0.66372240  0.24240455  0.98448064    -0.20600
C1067       C  0.69117727  0.24309742  0.97820667    -0.10200
C1068       C  0.69148237  0.21578610  0.97338919    -0.10700
C1069       C  0.66368852  0.18808791  0.97148884    -0.03700
C1070       C  0.63625783  0.18745006  0.97698451    -0.18800
H1071       H  0.54312724  0.27226307  0.04578926     0.10300
H1072       H  0.59261715  0.27686867  0.03466296     0.10400
H1073       H  0.54955632  0.17858967  0.03050132     0.10000
H1074       H  0.50020223  0.17402253  0.04071664     0.11100
H1075       H  0.62497677  0.25215695  0.02815721     0.11200
H1076       H  0.58610043  0.19181165  0.98655871     0.13100
H1077       H  0.66437395  0.26374633  0.98948872     0.09700
H1078       H  0.71230051  0.26474872  0.97994852     0.11700
H1079       H  0.66330795  0.16669892  0.96787725     0.08400
H1080       H  0.61525404  0.16560608  0.97685255     0.11100
C1081       C  0.28098732  0.89470293  0.00130058    -0.03500
C1082       C  0.27918766  0.90958827  0.96954006    -0.06100
C1083       C  0.29785303  0.94114239  0.96540866    -0.21200
C1084       C  0.31835377  0.95880780  0.99319162     0.24500
C1085       C  0.32084387  0.94403504  0.02468563    -0.18700
C1086       C  0.30246106  0.91220220  0.02856422    -0.08700
C1087       C  0.33646103  0.99250664  0.98827081    -0.19000
C1088       C  0.34318663  0.01235039  0.01627807    -0.23800
C1089       C  0.35698714  0.04581498  0.01043796     0.26600
C1090       C  0.34877702  0.06231817  0.03407015    -0.20600
C1091       C  0.36033415  0.09356487  0.02870242    -0.10200
C1092       C  0.38094802  0.10925631  0.99995989    -0.10700
C1093       C  0.38985148  0.09291699  0.97685981    -0.03700
C1094       C  0.37787327  0.06147200  0.98190525    -0.18800
H1095       H  0.26311659  0.89683456  0.94783340     0.10300
H1096       H  0.29565489  0.95193061  0.94078544     0.10400
H1097       H  0.33696215  0.95702672  0.04623204     0.10000
H1098       H  0.30448541  0.90141906  0.05326497     0.11100
H1099       H  0.34130385  0.00112080  0.96021150     0.11200
H1100       H  0.33544944  0.00355159  0.04388259     0.13100
H1101       H  0.33288553  0.05085682  0.05638022     0.09700
H1102       H  0.35323895  0.10549058  0.04729373     0.11700
H1103       H  0.40583432  0.10436614  0.95466174     0.08400
H1104       H  0.38520937  0.04953968  0.96370641     0.11100
C1105       C  0.38130243  0.27983045  0.00759195    -0.03500
C1106       C  0.39474556  0.30865193  0.02475867    -0.06100
C1107       C  0.38150535  0.32700105  0.02151590    -0.21200
C1108       C  0.35438306  0.31670710  0.00157868     0.24500
C1109       C  0.34148646  0.28826073  0.98367215    -0.18700
C1110       C  0.35468539  0.27010692  0.98672962    -0.08700
C1111       C  0.33996338  0.33590533  0.99945840    -0.19000
C1112       C  0.30963231  0.32347984  0.99586469    -0.23800
C1113       C  0.29364363  0.34112455  0.99419441     0.26600
C1114       C  0.26279143  0.32611656  0.00384923    -0.20600
C1115       C  0.24633973  0.34119545  0.00209028    -0.10200
C1116       C  0.26018060  0.37165010  0.98999109    -0.10700
C1117       C  0.29097957  0.38664438  0.97960981    -0.03700
C1118       C  0.30763810  0.37157831  0.98183761    -0.18800
H1119       H  0.41538932  0.31696267  0.04074955     0.10300
H1120       H  0.39213606  0.34901586  0.03517981     0.10400
H1121       H  0.32128199  0.27997889  0.96687471     0.10000
H1122       H  0.34376714  0.24821265  0.97279151     0.11100
H1123       H  0.35437395  0.36043646  0.00294790     0.11200
H1124       H  0.29528239  0.29875489  0.99613388     0.13100
H1125       H  0.25133411  0.30256421  0.01303947     0.09700
H1126       H  0.22258989  0.32880827  0.00993884     0.11700
H1127       H  0.30223463  0.41005901  0.97001100     0.08400
H1128       H  0.33117887  0.38360585  0.97324983     0.11100
loop_ 
_geom_bond_atom_site_label_1 
_geom_bond_atom_site_label_2 
_geom_bond_distance 
_geom_bond_site_symmetry_2 
_ccdc_geom_bond_type 
Fe1          O17   2.041   1_554  S
Fe1           O7   2.108   1_554  S
Fe1          O14   2.106       .  S
Fe1           O6   2.048       .  S
Fe1          O12   1.936       .  S
Fe2           O5   2.041   1_554  S
Fe2           O9   2.108       .  S
Fe2          O13   2.046       .  S
Fe2          O18   2.119       .  S
Fe2          O12   1.939       .  S
Fe3          O21   2.121       .  S
Fe3           O8   2.039   1_556  S
Fe3          O15   2.039       .  S
Fe3           O4   2.098       .  S
Fe3          O12   1.937   1_556  S
O4           C11   1.274       .  A
O5           C19   1.267       .  A
O6           C11   1.266   1_554  A
O7           C10   1.280       .  A
O8           C20   1.263       .  A
O9           C22   1.276       .  A
C10          O15   1.270       .  A
C10         C985   1.483       .  S
C11        C1092   1.485       .  S
O13          C16   1.270       .  A
O14          C16   1.278       .  A
C16        C1009   1.469       .  S
O17          C22   1.266   1_556  A
O18          C20   1.277       .  A
C19          O21   1.280       .  A
C19        C1033   1.486       .  S
C20        C1057   1.482       .  S
C22        C1105   1.488       .  S
Fe23         O39   2.043       .  S
Fe23         O29   2.114       .  S
Fe23         O36   2.104       .  S
Fe23         O28   2.045       .  S
Fe23         O34   1.936       .  S
Fe24         O27   2.043       .  S
Fe24         O31   2.096       .  S
Fe24         O35   2.043       .  S
Fe24         O40   2.123       .  S
Fe24         O34   1.940       .  S
Fe25         O43   2.110       .  S
Fe25         O30   2.033       .  S
Fe25         O37   2.041       .  S
Fe25         O26   2.099       .  S
Fe25         O34   1.942       .  S
O26          C33   1.272       .  A
O27          C41   1.262       .  A
O28          C33   1.264       .  A
O29          C32   1.281       .  A
O30          C42   1.267       .  A
O31          C44   1.275       .  A
C32          O37   1.271       .  A
C32         C996   1.473       .  S
C33         C972   1.487       .  S
O35          C38   1.270       .  A
O36          C38   1.278       .  A
C38        C1020   1.483       .  S
O39          C44   1.267       .  A
O40          C42   1.282       .  A
C41          O43   1.274       .  A
C41         C924   1.485       .  S
C42         C889   1.475       .  S
C44         C948   1.486       .  S
Fe45         O61   2.047       .  S
Fe45         O51   2.100       .  S
Fe45         O58   2.106   1_556  S
Fe45         O50   2.057   1_556  S
Fe45         O56   1.939   1_556  S
Fe46         O49   2.041   1_554  S
Fe46         O53   2.110       .  S
Fe46         O57   2.048       .  S
Fe46         O62   2.118       .  S
Fe46         O56   1.943       .  S
Fe47         O65   2.112       .  S
Fe47         O52   2.041   1_556  S
Fe47         O59   2.044       .  S
Fe47         O48   2.089       .  S
Fe47         O56   1.936   1_556  S
O48          C55   1.274       .  A
O49          C63   1.269       .  A
O50          C55   1.269   1_554  A
O51          C54   1.277       .  A
O52          C64   1.262       .  A
O53          C66   1.276       .  A
C54          O59   1.270       .  A
C54         C841   1.484       .  S
C55         C828   1.487       .  S
O57          C60   1.271       .  A
O58          C60   1.279       .  A
C60         C876   1.469       .  S
O61          C66   1.266   1_556  A
O62          C64   1.276       .  A
C63          O65   1.279       .  A
C63         C769   1.481       .  S
C64         C793   1.487       .  S
C66        C1081   1.487       .  S
Fe67         O83   2.048       .  S
Fe67         O73   2.108       .  S
Fe67         O80   2.108       .  S
Fe67         O72   2.048       .  S
Fe67         O78   1.935       .  S
Fe68         O71   2.037       .  S
Fe68         O75   2.095       .  S
Fe68         O79   2.039       .  S
Fe68         O84   2.113       .  S
Fe68         O78   1.932       .  S
Fe69         O87   2.122       .  S
Fe69         O74   2.041       .  S
Fe69         O81   2.048       .  S
Fe69         O70   2.111       .  S
Fe69         O78   1.937       .  S
O70          C77   1.277       .  A
O71          C85   1.262       .  A
O72          C77   1.267       .  A
O73          C76   1.279       .  A
O74          C86   1.267       .  A
O75          C88   1.275       .  A
C76          O81   1.271       .  A
C76         C865   1.474       .  S
C77         C756   1.487       .  S
O79          C82   1.268       .  A
O80          C82   1.278       .  A
C82         C852   1.474       .  S
O83          C88   1.268       .  A
O84          C86   1.279       .  A
C85          O87   1.277       .  A
C85         C708   1.485       .  S
C86         C732   1.475       .  S
C88         C937   1.485       .  S
Fe89        O105   2.037   1_554  S
Fe89         O95   2.102   1_554  S
Fe89        O102   2.108       .  S
Fe89         O94   2.046       .  S
Fe89        O100   1.935       .  S
Fe90         O93   2.041       .  S
Fe90         O97   2.116       .  S
Fe90        O101   2.050       .  S
Fe90        O106   2.128       .  S
Fe90        O100   1.938       .  S
Fe91        O109   2.119       .  S
Fe91         O96   2.037   1_556  S
Fe91        O103   2.045       .  S
Fe91         O92   2.100       .  S
Fe91        O100   1.933   1_556  S
O92          C99   1.276   1_556  A
O93         C107   1.267   1_554  A
O94          C99   1.267       .  A
O95          C98   1.278       .  A
O96         C108   1.263       .  A
O97         C110   1.278       .  A
C98         O103   1.270       .  A
C98         C649   1.485       .  S
C99         C636   1.487       .  S
O101        C104   1.271       .  A
O102        C104   1.279       .  A
C104        C673   1.476       .  S
O105        C110   1.265   1_556  A
O106        C108   1.279       .  A
C107        O109   1.279       .  A
C107        C612   1.478       .  S
C108       C1044   1.482       .  S
C110        C817   1.489       .  S
Fe111       O127   2.050       .  S
Fe111       O117   2.108       .  S
Fe111       O124   2.114       .  S
Fe111       O116   2.046       .  S
Fe111       O122   1.937       .  S
Fe112       O115   2.040       .  S
Fe112       O119   2.105       .  S
Fe112       O123   2.040       .  S
Fe112       O128   2.114       .  S
Fe112       O122   1.934       .  S
Fe113       O131   2.117       .  S
Fe113       O118   2.043       .  S
Fe113       O125   2.049       .  S
Fe113       O114   2.110       .  S
Fe113       O122   1.935       .  S
O114        C121   1.277       .  A
O115        C129   1.265       .  A
O116        C121   1.268       .  A
O117        C120   1.278       .  A
O118        C130   1.267       .  A
O119        C132   1.276       .  A
C120        O125   1.270       .  A
C120        C684   1.475       .  S
C121        C588   1.490       .  S
O123        C126   1.269       .  A
O124        C126   1.279       .  A
C126        C660   1.478       .  S
O127        C132   1.267       .  A
O128        C130   1.278       .  A
C129        O131   1.278       .  A
C129        C553   1.484       .  S
C130        C900   1.480       .  S
C132        C745   1.486       .  S
Fe133       O149   2.051   1_554  S
Fe133       O139   2.114   1_554  S
Fe133       O146   2.103       .  S
Fe133       O138   2.050       .  S
Fe133       O144   1.934       .  S
Fe134       O137   2.040   1_554  S
Fe134       O141   2.093       .  S
Fe134       O145   2.037       .  S
Fe134       O150   2.119       .  S
Fe134       O144   1.932       .  S
Fe135       O153   2.119       .  S
Fe135       O140   2.033   1_556  S
Fe135       O147   2.046       .  S
Fe135       O136   2.105       .  S
Fe135       O144   1.937   1_556  S
O136        C143   1.274       .  A
O137        C151   1.261       .  A
O138        C143   1.266   1_554  A
O139        C142   1.281       .  A
O140        C152   1.267       .  A
O141        C154   1.276       .  A
C142        O147   1.271       .  A
C142        C516   1.471       .  S
C143        C492   1.486       .  S
O145        C148   1.268       .  A
O146        C148   1.277       .  A
C148        C540   1.478       .  S
O149        C154   1.270   1_556  A
O150        C152   1.280       .  A
C151        O153   1.276       .  A
C151        C457   1.488       .  S
C152        C780   1.470       .  S
C154        C625   1.485       .  S
Fe155       O171   2.038       .  S
Fe155       O161   2.116       .  S
Fe155       O168   2.105       .  S
Fe155       O160   2.047       .  S
Fe155       O166   1.931       .  S
Fe156       O159   2.039       .  S
Fe156       O163   2.116       .  S
Fe156       O167   2.055       .  S
Fe156       O172   2.129       .  S
Fe156       O166   1.935       .  S
Fe157       O175   2.116       .  S
Fe157       O162   2.033       .  S
Fe157       O169   2.032       .  S
Fe157       O158   2.098       .  S
Fe157       O166   1.931       .  S
O158        C165   1.274       .  A
O159        C173   1.266       .  A
O160        C165   1.266       .  A
O161        C164   1.280       .  A
O162        C174   1.262       .  A
O163        C176   1.279       .  A
C164        O169   1.269       .  A
C164        C529   1.485       .  S
C165        C433   1.483       .  S
O167        C170   1.271       .  A
O168        C170   1.278       .  A
C170        C505   1.477       .  S
O171        C176   1.267       .  A
O172        C174   1.280       .  A
C173        O175   1.278       .  A
C173        C409   1.483       .  S
C174        C697   1.479       .  S
C176        C577   1.485       .  S
Fe177       O193   2.039       .  S
Fe177       O183   2.115       .  S
Fe177       O190   2.113   1_556  S
Fe177       O182   2.040       .  S
Fe177       O188   1.943   1_556  S
Fe178       O181   2.040   1_554  S
Fe178       O185   2.100       .  S
Fe178       O189   2.048       .  S
Fe178       O194   2.117       .  S
Fe178       O188   1.945       .  S
Fe179       O197   2.120       .  S
Fe179       O184   2.036   1_556  S
Fe179       O191   2.040       .  S
Fe179       O180   2.100       .  S
Fe179       O188   1.943   1_556  S
O180        C187   1.273       .  A
O181        C195   1.266       .  A
O182        C187   1.265       .  A
O183        C186   1.281       .  A
O184        C196   1.262       .  A
O185        C198   1.273       .  A
C186        O191   1.270       .  A
C186        C361   1.484       .  S
C187        C337   1.488       .  S
O189        C192   1.272       .  A
O190        C192   1.281       .  A
C192        C385   1.474       .  S
O193        C198   1.264   1_556  A
O194        C196   1.277       .  A
C195        O197   1.279       .  A
C195       C1068   1.477       .  S
C196        C601   1.482       .  S
C198        C481   1.477       .  S
Fe199       O215   2.051       .  S
Fe199       O205   2.108       .  S
Fe199       O212   2.119       .  S
Fe199       O204   2.048       .  S
Fe199       O210   1.938       .  S
Fe200       O203   2.039       .  S
Fe200       O207   2.096       .  S
Fe200       O211   2.040       .  S
Fe200       O216   2.114       .  S
Fe200       O210   1.944       .  S
Fe201       O219   2.119       .  S
Fe201       O206   2.040       .  S
Fe201       O213   2.046       .  S
Fe201       O202   2.092       .  S
Fe201       O210   1.941       .  S
O202        C209   1.273       .  A
O203        C217   1.266       .  A
O204        C209   1.268       .  A
O205        C208   1.280       .  A
O206        C218   1.263       .  A
O207        C220   1.272       .  A
C208        O213   1.271       .  A
C208        C396   1.486       .  S
C209        C313   1.485       .  S
O211        C214   1.272       .  A
O212        C214   1.282       .  A
C214        C372   1.490       .  S
O215        C220   1.265       .  A
O216        C218   1.275       .  A
C217        O219   1.279       .  A
C217        C913   1.476       .  S
C218        C564   1.479       .  S
C220        C444   1.481       .  S
Fe221       O237   2.042       .  S
Fe221       O227   2.105       .  S
Fe221       O234   2.111   1_556  S
Fe221       O226   2.045   1_556  S
Fe221       O232   1.937   1_556  S
Fe222       O225   2.033   1_554  S
Fe222       O229   2.112       .  S
Fe222       O233   2.040       .  S
Fe222       O238   2.129       .  S
Fe222       O232   1.937       .  S
Fe223       O241   2.131       .  S
Fe223       O228   2.037   1_556  S
Fe223       O235   2.043       .  S
Fe223       O224   2.101       .  S
Fe223       O232   1.932   1_556  S
O224        C231   1.276       .  A
O225        C239   1.265       .  A
O226        C231   1.268   1_554  A
O227        C230   1.279       .  A
O228        C240   1.262       .  A
O229        C242   1.277       .  A
C230        O235   1.271       .  A
C230        C265   1.486       .  S
C231       C1116   1.485       .  S
O233        C236   1.270       .  A
O234        C236   1.279       .  A
C236        C300   1.472       .  S
O237        C242   1.266   1_556  A
O238        C240   1.279       .  A
C239        O241   1.281       .  A
C239        C804   1.479       .  S
C240        C468   1.484       .  S
C242        C348   1.490       .  S
Fe243       O259   2.041       .  S
Fe243       O249   2.107       .  S
Fe243       O256   2.118       .  S
Fe243       O248   2.038       .  S
Fe243       O254   1.936       .  S
Fe244       O247   2.028       .  S
Fe244       O251   2.098       .  S
Fe244       O255   2.038       .  S
Fe244       O260   2.113       .  S
Fe244       O254   1.936       .  S
Fe245       O263   2.131       .  S
Fe245       O250   2.037       .  S
Fe245       O257   2.042       .  S
Fe245       O246   2.105       .  S
Fe245       O254   1.938       .  S
O246        C253   1.276       .  A
O247        C261   1.264       .  A
O248        C253   1.266       .  A
O249        C252   1.279       .  A
O250        C262   1.262       .  A
O251        C264   1.273       .  A
C252        O257   1.270       .  A
C252        C289   1.486       .  S
C253        C961   1.485       .  S
O255        C258   1.270       .  A
O256        C258   1.281       .  A
C258        C276   1.476       .  S
O259        C264   1.265       .  A
O260        C262   1.275       .  A
C261        O263   1.282       .  A
C261        C721   1.483       .  S
C262        C420   1.475       .  S
C264        C324   1.485       .  S
C265        C266   1.409       .  A
C265        C270   1.406       .  A
C266        C267   1.406       .  A
C266        H279   1.082       .  S
C267        C268   1.405       .  A
C267        H280   1.083       .  S
C268        C269   1.404       .  A
C268        C271   1.487       .  S
C269        C270   1.392       .  A
C269        H281   1.082       .  S
C270        H282   1.083       .  S
C271        C272   1.348       .  D
C271        H283   1.084       .  S
C272        C273   1.489       .  S
C272        H284   1.088       .  S
C273        C274   1.403       .  A
C273        C278   1.411       .  A
C274        C275   1.392       .  A
C274        H285   1.084       .  S
C275        C276   1.401       .  A
C275        H286   1.084       .  S
C276        C277   1.405       .  A
C277        C278   1.407       .  A
C277        H287   1.083       .  S
C278        H288   1.081       .  S
C289        C290   1.408       .  A
C289        C294   1.407       .  A
C290        C291   1.406       .  A
C290        H303   1.083       .  S
C291        C292   1.404       .  A
C291        H304   1.083       .  S
C292        C293   1.404       .  A
C292        C295   1.485       .  S
C293        C294   1.392       .  A
C293        H305   1.083       .  S
C294        H306   1.083       .  S
C295        C296   1.347       .  D
C295        H307   1.083       .  S
C296        C297   1.488       .  S
C296        H308   1.088       .  S
C297        C298   1.403       .  A
C297        C302   1.411       .  A
C298        C299   1.392       .  A
C298        H309   1.084       .  S
C299        C300   1.400       .  A
C299        H310   1.083       .  S
C300        C301   1.404       .  A
C301        C302   1.406       .  A
C301        H311   1.084       .  S
C302        H312   1.080       .  S
C313        C314   1.405       .  A
C313        C318   1.408       .  A
C314        C315   1.393       .  A
C314        H327   1.083       .  S
C315        C316   1.401       .  A
C315        H328   1.084       .  S
C316        C317   1.409       .  A
C316        C319   1.486       .  S
C317        C318   1.405       .  A
C317        H329   1.082       .  S
C318        H330   1.083       .  S
C319        C320   1.348   1_655  D
C319        H331   1.087       .  S
C320        C321   1.489       .  S
C320        H332   1.085   1_455  S
C321        C322   1.405       .  A
C321        C326   1.406       .  A
C322        C323   1.404       .  A
C322        H333   1.083       .  S
C323        C324   1.407       .  A
C323        H334   1.082       .  S
C324        C325   1.406       .  A
C325        C326   1.394       .  A
C325        H335   1.083       .  S
C326        H336   1.082       .  S
C337        C338   1.406       .  A
C337        C342   1.409       .  A
C338        C339   1.391       .  A
C338        H351   1.083   1_556  S
C339        C340   1.399       .  A
C339        H352   1.084   1_556  S
C340        C341   1.408       .  A
C340        C343   1.483       .  S
C341        C342   1.409       .  A
C341        H353   1.083       .  S
C342        H354   1.083       .  S
C343        C344   1.348   1_655  D
C343        H355   1.086       .  S
C344        C345   1.493       .  S
C344        H356   1.087   1_456  S
C345        C346   1.407   1_556  A
C345        C350   1.405       .  A
C346        C347   1.407       .  A
C346        H357   1.083       .  S
C347        C348   1.407       .  A
C347        H358   1.083       .  S
C348        C349   1.408   1_554  A
C349        C350   1.395       .  A
C349        H359   1.083       .  S
C350        H360   1.083       .  S
C361        C362   1.405       .  A
C361        C366   1.407       .  A
C362        C363   1.391       .  A
C362        H375   1.083       .  S
C363        C364   1.401       .  A
C363        H376   1.084       .  S
C364        C365   1.410       .  A
C364        C367   1.486       .  S
C365        C366   1.408       .  A
C365        H377   1.081       .  S
C366        H378   1.083       .  S
C367        C368   1.349       .  D
C367        H379   1.087       .  S
C368        C369   1.490       .  S
C368        H380   1.085       .  S
C369        C370   1.406       .  A
C369        C374   1.405       .  A
C370        C371   1.408       .  A
C370        H381   1.083       .  S
C371        C372   1.409       .  A
C371        H382   1.083       .  S
C372        C373   1.407       .  A
C373        C374   1.392       .  A
C373        H383   1.083       .  S
C374        H384   1.083       .  S
C385        C386   1.400       .  A
C385        C390   1.404       .  A
C386        C387   1.395       .  A
C386        H399   1.084       .  S
C387        C388   1.405       .  A
C387        H400   1.084       .  S
C388        C389   1.410       .  A
C388        C391   1.491       .  S
C389        C390   1.406       .  A
C389        H401   1.081       .  S
C390        H402   1.084       .  S
C391        C392   1.350       .  D
C391        H403   1.087       .  S
C392        C393   1.492       .  S
C392        H404   1.084       .  S
C393        C394   1.407       .  A
C393        C398   1.406       .  A
C394        C395   1.407       .  A
C394        H405   1.083       .  S
C395        C396   1.407       .  A
C395        H406   1.083       .  S
C396        C397   1.406       .  A
C397        C398   1.394       .  A
C397        H407   1.083       .  S
C398        H408   1.082       .  S
C409        C410   1.407       .  A
C409        C414   1.406       .  A
C410        C411   1.402       .  A
C410        H423   1.084       .  S
C411        C412   1.405       .  A
C411        H424   1.082       .  S
C412        C413   1.407       .  A
C412        C415   1.489       .  S
C413        C414   1.395       .  A
C413        H425   1.082       .  S
C414        H426   1.083       .  S
C415        C416   1.350       .  D
C415        H427   1.085       .  S
C416        C417   1.483       .  S
C416        H428   1.084       .  S
C417        C418   1.403       .  A
C417        C422   1.407       .  A
C418        C419   1.397       .  A
C418        H429   1.083       .  S
C419        C420   1.404       .  A
C419        H430   1.084       .  S
C420        C421   1.406       .  A
C421        C422   1.401       .  A
C421        H431   1.083       .  S
C422        H432   1.083       .  S
C433        C434   1.406       .  A
C433        C438   1.406       .  A
C434        C435   1.396       .  A
C434        H447   1.083       .  S
C435        C436   1.402       .  A
C435        H448   1.084       .  S
C436        C437   1.409       .  A
C436        C439   1.488       .  S
C437        C438   1.403       .  A
C437        H449   1.082       .  S
C438        H450   1.083       .  S
C439        C440   1.347   1_565  D
C439        H451   1.086       .  S
C440        C441   1.488       .  S
C440        H452   1.086       .  S
C441        C442   1.402       .  A
C441        C446   1.410       .  A
C442        C443   1.397       .  A
C442        H453   1.083       .  S
C443        C444   1.405       .  A
C443        H454   1.083       .  S
C444        C445   1.405       .  A
C445        C446   1.403       .  A
C445        H455   1.083       .  S
C446        H456   1.082       .  S
C457        C458   1.406       .  A
C457        C462   1.408       .  A
C458        C459   1.403       .  A
C458        H471   1.083       .  S
C459        C460   1.406       .  A
C459        H472   1.083       .  S
C460        C461   1.408       .  A
C460        C463   1.497       .  S
C461        C462   1.400       .  A
C461        H473   1.081       .  S
C462        H474   1.083       .  S
C463        C464   1.352   1_556  D
C463        H475   1.086       .  S
C464        C465   1.492       .  S
C464        H476   1.084       .  S
C465        C466   1.403       .  A
C465        C470   1.409       .  A
C466        C467   1.399       .  A
C466        H477   1.083       .  S
C467        C468   1.406       .  A
C467        H478   1.084       .  S
C468        C469   1.406       .  A
C469        C470   1.405       .  A
C469        H479   1.082       .  S
C470        H480   1.082       .  S
C481        C482   1.404       .  A
C481        C486   1.405       .  A
C482        C483   1.394       .  A
C482        H495   1.084       .  S
C483        C484   1.402       .  A
C483        H496   1.084       .  S
C484        C485   1.409       .  A
C484        C487   1.485       .  S
C485        C486   1.406       .  A
C485        H497   1.082       .  S
C486        H498   1.083       .  S
C487        C488   1.348   1_545  D
C487        H499   1.087   1_545  S
C488        C489   1.489       .  S
C488        H500   1.086   1_554  S
C489        C490   1.405   1_554  A
C489        C494   1.405       .  A
C490        C491   1.405       .  A
C490        H501   1.083       .  S
C491        C492   1.407       .  A
C491        H502   1.082       .  S
C492        C493   1.407   1_556  A
C493        C494   1.396       .  A
C493        H503   1.083       .  S
C494        H504   1.082       .  S
C505        C506   1.404       .  A
C505        C510   1.404       .  A
C506        C507   1.401       .  A
C506        H519   1.084       .  S
C507        C508   1.404       .  A
C507        H520   1.083       .  S
C508        C509   1.407       .  A
C508        C511   1.485       .  S
C509        C510   1.399       .  A
C509        H521   1.083       .  S
C510        H522   1.083       .  S
C511        C512   1.346       .  D
C511        H523   1.086       .  S
C512        C513   1.486       .  S
C512        H524   1.087       .  S
C513        C514   1.405       .  A
C513        C518   1.407       .  A
C514        C515   1.401       .  A
C514        H525   1.083       .  S
C515        C516   1.403       .  A
C515        H526   1.084       .  S
C516        C517   1.402       .  A
C517        C518   1.398       .  A
C517        H527   1.083       .  S
C518        H528   1.083       .  S
C529        C530   1.409       .  A
C529        C534   1.406       .  A
C530        C531   1.408       .  A
C530        H543   1.082       .  S
C531        C532   1.405       .  A
C531        H544   1.083       .  S
C532        C533   1.404       .  A
C532        C535   1.486       .  S
C533        C534   1.388       .  A
C533        H545   1.083       .  S
C534        H546   1.083       .  S
C535        C536   1.346       .  D
C535        H547   1.085       .  S
C536        C537   1.481       .  S
C536        H548   1.088       .  S
C537        C538   1.401       .  A
C537        C542   1.408       .  A
C538        C539   1.389       .  A
C538        H549   1.084       .  S
C539        C540   1.403       .  A
C539        H550   1.083       .  S
C540        C541   1.407       .  A
C541        C542   1.407       .  A
C541        H551   1.083       .  S
C542        H552   1.082       .  S
C553        C554   1.407       .  A
C553        C558   1.406       .  A
C554        C555   1.403       .  A
C554        H567   1.083       .  S
C555        C556   1.405       .  A
C555        H568   1.083       .  S
C556        C557   1.408       .  A
C556        C559   1.492       .  S
C557        C558   1.398       .  A
C557        H569   1.081       .  S
C558        H570   1.083       .  S
C559        C560   1.351       .  D
C559        H571   1.085       .  S
C560        C561   1.486       .  S
C560        H572   1.084       .  S
C561        C562   1.403       .  A
C561        C566   1.408       .  A
C562        C563   1.397       .  A
C562        H573   1.083       .  S
C563        C564   1.405       .  A
C563        H574   1.084       .  S
C564        C565   1.406       .  A
C565        C566   1.403       .  A
C565        H575   1.082       .  S
C566        H576   1.083       .  S
C577        C578   1.405       .  A
C577        C582   1.407       .  A
C578        C579   1.392       .  A
C578        H591   1.083       .  S
C579        C580   1.401       .  A
C579        H592   1.084       .  S
C580        C581   1.411       .  A
C580        C583   1.488       .  S
C581        C582   1.409       .  A
C581        H593   1.081       .  S
C582        H594   1.084       .  S
C583        C584   1.349       .  D
C583        H595   1.086       .  S
C584        C585   1.495       .  S
C584        H596   1.086       .  S
C585        C586   1.407       .  A
C585        C590   1.406       .  A
C586        C587   1.407       .  A
C586        H597   1.083       .  S
C587        C588   1.408       .  A
C587        H598   1.082       .  S
C588        C589   1.407       .  A
C589        C590   1.395       .  A
C589        H599   1.083       .  S
C590        H600   1.081       .  S
C601        C602   1.406       .  A
C601        C606   1.407       .  A
C602        C603   1.402       .  A
C602        H615   1.084       .  S
C603        C604   1.405       .  A
C603        H616   1.083       .  S
C604        C605   1.406       .  A
C604        C607   1.489       .  S
C605        C606   1.397       .  A
C605        H617   1.082       .  S
C606        H618   1.083       .  S
C607        C608   1.351   1_554  D
C607        H619   1.085       .  S
C608        C609   1.487       .  S
C608        H620   1.085       .  S
C609        C610   1.403       .  A
C609        C614   1.408       .  A
C610        C611   1.398       .  A
C610        H621   1.083       .  S
C611        C612   1.405       .  A
C611        H622   1.084       .  S
C612        C613   1.405       .  A
C613        C614   1.402       .  A
C613        H623   1.083       .  S
C614        H624   1.082       .  S
C625        C626   1.406   1_554  A
C625        C630   1.407       .  A
C626        C627   1.395       .  A
C626        H639   1.082       .  S
C627        C628   1.402   1_556  A
C627        H640   1.084       .  S
C628        C629   1.408       .  A
C628        C631   1.487       .  S
C629        C630   1.403       .  A
C629        H641   1.081       .  S
C630        H642   1.084       .  S
C631        C632   1.348       .  D
C631        H643   1.087       .  S
C632        C633   1.489       .  S
C632        H644   1.086       .  S
C633        C634   1.405   1_554  A
C633        C638   1.406       .  A
C634        C635   1.403       .  A
C634        H645   1.084       .  S
C635        C636   1.407   1_556  A
C635        H646   1.083       .  S
C636        C637   1.407       .  A
C637        C638   1.396       .  A
C637        H647   1.083       .  S
C638        H648   1.082       .  S
C649        C650   1.408       .  A
C649        C654   1.406       .  A
C650        C651   1.404       .  A
C650        H663   1.082       .  S
C651        C652   1.404       .  A
C651        H664   1.083       .  S
C652        C653   1.405       .  A
C652        C655   1.487       .  S
C653        C654   1.393       .  A
C653        H665   1.082       .  S
C654        H666   1.083       .  S
C655        C656   1.348       .  D
C655        H667   1.084       .  S
C656        C657   1.489       .  S
C656        H668   1.087       .  S
C657        C658   1.403       .  A
C657        C662   1.411       .  A
C658        C659   1.392       .  A
C658        H669   1.084       .  S
C659        C660   1.402       .  A
C659        H670   1.084       .  S
C660        C661   1.405       .  A
C661        C662   1.406       .  A
C661        H671   1.083       .  S
C662        H672   1.080       .  S
C673        C674   1.405       .  A
C673        C678   1.403       .  A
C674        C675   1.403       .  A
C674        H687   1.083       .  S
C675        C676   1.404       .  A
C675        H688   1.083       .  S
C676        C677   1.405       .  A
C676        C679   1.482       .  S
C677        C678   1.397       .  A
C677        H689   1.083       .  S
C678        H690   1.084       .  S
C679        C680   1.345       .  D
C679        H691   1.087       .  S
C680        C681   1.484       .  S
C680        H692   1.087       .  S
C681        C682   1.404       .  A
C681        C686   1.406       .  A
C682        C683   1.401       .  A
C682        H693   1.083       .  S
C683        C684   1.403       .  A
C683        H694   1.083       .  S
C684        C685   1.404       .  A
C685        C686   1.399       .  A
C685        H695   1.084       .  S
C686        H696   1.083       .  S
C697        C698   1.406       .  A
C697        C702   1.404       .  A
C698        C699   1.405       .  A
C698        H711   1.082       .  S
C699        C700   1.408       .  A
C699        H712   1.082       .  S
C700        C701   1.404       .  A
C700        C703   1.489       .  S
C701        C702   1.397       .  A
C701        H713   1.083       .  S
C702        H714   1.084       .  S
C703        C704   1.351       .  D
C703        H715   1.086       .  S
C704        C705   1.493       .  S
C704        H716   1.085       .  S
C705        C706   1.406       .  A
C705        C710   1.407       .  A
C706        C707   1.405       .  A
C706        H717   1.083       .  S
C707        C708   1.407       .  A
C707        H718   1.083       .  S
C708        C709   1.407       .  A
C709        C710   1.397       .  A
C709        H719   1.083       .  S
C710        H720   1.082       .  S
C721        C722   1.405       .  A
C721        C726   1.408       .  A
C722        C723   1.404       .  A
C722        H735   1.084       .  S
C723        C724   1.406       .  A
C723        H736   1.082       .  S
C724        C725   1.405       .  A
C724        C727   1.489       .  S
C725        C726   1.395       .  A
C725        H737   1.082       .  S
C726        H738   1.083       .  S
C727        C728   1.350       .  D
C727        H739   1.085       .  S
C728        C729   1.483       .  S
C728        H740   1.084       .  S
C729        C730   1.402       .  A
C729        C734   1.407       .  A
C730        C731   1.396       .  A
C730        H741   1.082       .  S
C731        C732   1.404       .  A
C731        H742   1.084       .  S
C732        C733   1.406       .  A
C733        C734   1.401       .  A
C733        H743   1.082       .  S
C734        H744   1.084       .  S
C745        C746   1.404       .  A
C745        C750   1.407       .  A
C746        C747   1.403       .  A
C746        H759   1.084       .  S
C747        C748   1.407       .  A
C747        H760   1.083       .  S
C748        C749   1.407       .  A
C748        C751   1.492       .  S
C749        C750   1.399       .  A
C749        H761   1.082       .  S
C750        H762   1.083       .  S
C751        C752   1.351   1_655  D
C751        H763   1.086       .  S
C752        C753   1.492       .  S
C752        H764   1.086   1_455  S
C753        C754   1.407       .  A
C753        C758   1.406       .  A
C754        C755   1.404       .  A
C754        H765   1.084       .  S
C755        C756   1.406       .  A
C755        H766   1.083       .  S
C756        C757   1.407       .  A
C757        C758   1.398       .  A
C757        H767   1.083       .  S
C758        H768   1.082       .  S
C769        C770   1.408       .  A
C769        C774   1.405       .  A
C770        C771   1.402       .  A
C770        H783   1.084       .  S
C771        C772   1.404       .  A
C771        H784   1.083       .  S
C772        C773   1.406       .  A
C772        C775   1.486       .  S
C773        C774   1.394       .  A
C773        H785   1.083       .  S
C774        H786   1.083       .  S
C775        C776   1.348   1_556  D
C775        H787   1.086       .  S
C776        C777   1.481       .  S
C776        H788   1.086       .  S
C777        C778   1.407       .  A
C777        C782   1.402       .  A
C778        C779   1.401       .  A
C778        H789   1.082       .  S
C779        C780   1.404       .  A
C779        H790   1.082       .  S
C780        C781   1.403       .  A
C781        C782   1.394       .  A
C781        H791   1.084       .  S
C782        H792   1.084       .  S
C793        C794   1.408       .  A
C793        C798   1.407       .  A
C794        C795   1.404       .  A
C794        H807   1.084       .  S
C795        C796   1.405       .  A
C795        H808   1.083       .  S
C796        C797   1.407       .  A
C796        C799   1.492       .  S
C797        C798   1.398       .  A
C797        H809   1.083       .  S
C798        H810   1.083       .  S
C799        C800   1.351   1_554  D
C799        H811   1.085       .  S
C800        C801   1.489       .  S
C800        H812   1.085       .  S
C801        C802   1.403       .  A
C801        C806   1.409       .  A
C802        C803   1.397       .  A
C802        H813   1.083       .  S
C803        C804   1.405       .  A
C803        H814   1.084       .  S
C804        C805   1.406       .  A
C805        C806   1.405       .  A
C805        H815   1.081       .  S
C806        H816   1.083       .  S
C817        C818   1.409   1_554  A
C817        C822   1.408       .  A
C818        C819   1.394       .  A
C818        H831   1.083       .  S
C819        C820   1.399   1_556  A
C819        H832   1.084       .  S
C820        C821   1.409       .  A
C820        C823   1.485       .  S
C821        C822   1.407       .  A
C821        H833   1.082       .  S
C822        H834   1.083       .  S
C823        C824   1.346   1_655  D
C823        H835   1.087   1_554  S
C824        C825   1.488       .  S
C824        H836   1.086       .  S
C825        C826   1.403   1_554  A
C825        C830   1.406       .  A
C826        C827   1.402       .  A
C826        H837   1.083       .  S
C827        C828   1.408       .  A
C827        H838   1.083       .  S
C828        C829   1.407   1_556  A
C829        C830   1.398       .  A
C829        H839   1.083       .  S
C830        H840   1.083       .  S
C841        C842   1.408       .  A
C841        C846   1.405       .  A
C842        C843   1.406       .  A
C842        H855   1.083       .  S
C843        C844   1.406       .  A
C843        H856   1.083       .  S
C844        C845   1.406       .  A
C844        C847   1.489       .  S
C845        C846   1.392       .  A
C845        H857   1.082       .  S
C846        H858   1.083       .  S
C847        C848   1.348       .  D
C847        H859   1.084       .  S
C848        C849   1.485       .  S
C848        H860   1.086       .  S
C849        C850   1.402       .  A
C849        C854   1.410       .  A
C850        C851   1.392       .  A
C850        H861   1.083       .  S
C851        C852   1.402       .  A
C851        H862   1.084       .  S
C852        C853   1.405       .  A
C853        C854   1.406       .  A
C853        H863   1.083       .  S
C854        H864   1.081       .  S
C865        C866   1.404       .  A
C865        C870   1.403       .  A
C866        C867   1.401       .  A
C866        H879   1.083       .  S
C867        C868   1.404       .  A
C867        H880   1.083       .  S
C868        C869   1.407       .  A
C868        C871   1.483       .  S
C869        C870   1.397       .  A
C869        H881   1.083       .  S
C870        H882   1.084       .  S
C871        C872   1.344       .  D
C871        H883   1.087       .  S
C872        C873   1.482       .  S
C872        H884   1.087       .  S
C873        C874   1.403       .  A
C873        C878   1.407       .  A
C874        C875   1.400       .  A
C874        H885   1.083       .  S
C875        C876   1.403       .  A
C875        H886   1.084       .  S
C876        C877   1.402       .  A
C877        C878   1.398       .  A
C877        H887   1.084       .  S
C878        H888   1.083       .  S
C889        C890   1.404       .  A
C889        C894   1.405       .  A
C890        C891   1.395       .  A
C890        H903   1.084       .  S
C891        C892   1.402       .  A
C891        H904   1.083       .  S
C892        C893   1.408       .  A
C892        C895   1.485       .  S
C893        C894   1.402       .  A
C893        H905   1.083       .  S
C894        H906   1.083       .  S
C895        C896   1.350       .  D
C895        H907   1.085       .  S
C896        C897   1.489       .  S
C896        H908   1.085       .  S
C897        C898   1.404       .  A
C897        C902   1.407       .  A
C898        C899   1.402       .  A
C898        H909   1.083       .  S
C899        C900   1.407       .  A
C899        H910   1.084       .  S
C900        C901   1.405       .  A
C901        C902   1.397       .  A
C901        H911   1.083       .  S
C902        H912   1.082       .  S
C913        C914   1.405       .  A
C913        C918   1.404       .  A
C914        C915   1.402       .  A
C914        H927   1.083       .  S
C915        C916   1.408       .  A
C915        H928   1.082       .  S
C916        C917   1.403       .  A
C916        C919   1.487       .  S
C917        C918   1.397       .  A
C917        H929   1.084       .  S
C918        H930   1.083       .  S
C919        C920   1.350       .  D
C919        H931   1.086       .  S
C920        C921   1.489       .  S
C920        H932   1.085       .  S
C921        C922   1.404       .  A
C921        C926   1.406       .  A
C922        C923   1.403       .  A
C922        H933   1.083       .  S
C923        C924   1.408       .  A
C923        H934   1.084       .  S
C924        C925   1.406       .  A
C925        C926   1.397       .  A
C925        H935   1.082       .  S
C926        H936   1.083       .  S
C937        C938   1.408       .  A
C937        C942   1.406       .  A
C938        C939   1.403       .  A
C938        H951   1.083       .  S
C939        C940   1.404       .  A
C939        H952   1.083       .  S
C940        C941   1.405       .  A
C940        C943   1.486       .  S
C941        C942   1.394       .  A
C941        H953   1.082       .  S
C942        H954   1.083       .  S
C943        C944   1.346   1_565  D
C943        H955   1.086       .  S
C944        C945   1.483       .  S
C944        H956   1.088   1_545  S
C945        C946   1.400       .  A
C945        C950   1.408       .  A
C946        C947   1.392       .  A
C946        H957   1.085       .  S
C947        C948   1.407       .  A
C947        H958   1.083       .  S
C948        C949   1.408       .  A
C949        C950   1.405       .  A
C949        H959   1.084       .  S
C950        H960   1.081       .  S
C961        C962   1.406       .  A
C961        C966   1.407       .  A
C962        C963   1.392       .  A
C962        H975   1.083       .  S
C963        C964   1.400       .  A
C963        H976   1.085       .  S
C964        C965   1.409       .  A
C964        C967   1.484       .  S
C965        C966   1.407       .  A
C965        H977   1.082       .  S
C966        H978   1.084       .  S
C967        C968   1.347       .  D
C967        H979   1.087       .  S
C968        C969   1.490       .  S
C968        H980   1.086       .  S
C969        C970   1.406       .  A
C969        C974   1.406       .  A
C970        C971   1.405       .  A
C970        H981   1.083       .  S
C971        C972   1.408       .  A
C971        H982   1.083       .  S
C972        C973   1.406       .  A
C973        C974   1.394       .  A
C973        H983   1.083       .  S
C974        H984   1.082       .  S
C985        C986   1.407       .  A
C985        C990   1.406       .  A
C986        C987   1.405       .  A
C986        H999   1.083       .  S
C987        C988   1.405       .  A
C987       H1000   1.083       .  S
C988        C989   1.405       .  A
C988        C991   1.487       .  S
C989        C990   1.392       .  A
C989       H1001   1.082       .  S
C990       H1002   1.083       .  S
C991        C992   1.348       .  D
C991       H1003   1.084       .  S
C992        C993   1.486       .  S
C992       H1004   1.087       .  S
C993        C994   1.403       .  A
C993        C998   1.410       .  A
C994        C995   1.392       .  A
C994       H1005   1.084       .  S
C995        C996   1.401       .  A
C995       H1006   1.083       .  S
C996        C997   1.404       .  A
C997        C998   1.405       .  A
C997       H1007   1.083       .  S
C998       H1008   1.081       .  S
C1009      C1010   1.399       .  A
C1009      C1014   1.403       .  A
C1010      C1011   1.395       .  A
C1010      H1023   1.084       .  S
C1011      C1012   1.405       .  A
C1011      H1024   1.083       .  S
C1012      C1013   1.412       .  A
C1012      C1015   1.491       .  S
C1013      C1014   1.405       .  A
C1013      H1025   1.080       .  S
C1014      H1026   1.083       .  S
C1015      C1016   1.350       .  D
C1015      H1027   1.087       .  S
C1016      C1017   1.490       .  S
C1016      H1028   1.084       .  S
C1017      C1018   1.407       .  A
C1017      C1022   1.406       .  A
C1018      C1019   1.406       .  A
C1018      H1029   1.083       .  S
C1019      C1020   1.406       .  A
C1019      H1030   1.083       .  S
C1020      C1021   1.405       .  A
C1021      C1022   1.393       .  A
C1021      H1031   1.084       .  S
C1022      H1032   1.082       .  S
C1033      C1034   1.407       .  A
C1033      C1038   1.407       .  A
C1034      C1035   1.404       .  A
C1034      H1047   1.084       .  S
C1035      C1036   1.405       .  A
C1035      H1048   1.083       .  S
C1036      C1037   1.407       .  A
C1036      C1039   1.493   1_556  S
C1037      C1038   1.397       .  A
C1037      H1049   1.083   1_556  S
C1038      H1050   1.083       .  S
C1039      C1040   1.351       .  D
C1039      H1051   1.086   1_554  S
C1040      C1041   1.488       .  S
C1040      H1052   1.086       .  S
C1041      C1042   1.402       .  A
C1041      C1046   1.408       .  A
C1042      C1043   1.397       .  A
C1042      H1053   1.084       .  S
C1043      C1044   1.405       .  A
C1043      H1054   1.084       .  S
C1044      C1045   1.407       .  A
C1045      C1046   1.406       .  A
C1045      H1055   1.083       .  S
C1046      H1056   1.083       .  S
C1057      C1058   1.406       .  A
C1057      C1062   1.407       .  A
C1058      C1059   1.402       .  A
C1058      H1071   1.083       .  S
C1059      C1060   1.404       .  A
C1059      H1072   1.084       .  S
C1060      C1061   1.407       .  A
C1060      C1063   1.489       .  S
C1061      C1062   1.398       .  A
C1061      H1073   1.082       .  S
C1062      H1074   1.084       .  S
C1063      C1064   1.350   1_554  D
C1063      H1075   1.085       .  S
C1064      C1065   1.489       .  S
C1064      H1076   1.086       .  S
C1065      C1066   1.409       .  A
C1065      C1070   1.404       .  A
C1066      C1067   1.402       .  A
C1066      H1077   1.082       .  S
C1067      C1068   1.405       .  A
C1067      H1078   1.083       .  S
C1068      C1069   1.404       .  A
C1069      C1070   1.398       .  A
C1069      H1079   1.084       .  S
C1070      H1080   1.083       .  S
C1081      C1082   1.407   1_554  A
C1081      C1086   1.407       .  A
C1082      C1083   1.396       .  A
C1082      H1095   1.083       .  S
C1083      C1084   1.401       .  A
C1083      H1096   1.084       .  S
C1084      C1085   1.409   1_556  A
C1084      C1087   1.487       .  S
C1085      C1086   1.405       .  A
C1085      H1097   1.082       .  S
C1086      H1098   1.083       .  S
C1087      C1088   1.346   1_566  D
C1087      H1099   1.087   1_565  S
C1088      C1089   1.488       .  S
C1088      H1100   1.087       .  S
C1089      C1090   1.402       .  A
C1089      C1094   1.408   1_554  A
C1090      C1091   1.398       .  A
C1090      H1101   1.084       .  S
C1091      C1092   1.408   1_554  A
C1091      H1102   1.083       .  S
C1092      C1093   1.406       .  A
C1093      C1094   1.402       .  A
C1093      H1103   1.083       .  S
C1094      H1104   1.082       .  S
C1105      C1106   1.407       .  A
C1105      C1110   1.408   1_554  A
C1106      C1107   1.406       .  A
C1106      H1119   1.083       .  S
C1107      C1108   1.406       .  A
C1107      H1120   1.083       .  S
C1108      C1109   1.405   1_554  A
C1108      C1111   1.491   1_554  S
C1109      C1110   1.394       .  A
C1109      H1121   1.082       .  S
C1110      H1122   1.083       .  S
C1111      C1112   1.349       .  D
C1111      H1123   1.086   1_556  S
C1112      C1113   1.487       .  S
C1112      H1124   1.086       .  S
C1113      C1114   1.402   1_556  A
C1113      C1118   1.409       .  A
C1114      C1115   1.395       .  A
C1114      H1125   1.084       .  S
C1115      C1116   1.406   1_554  A
C1115      H1126   1.083       .  S
C1116      C1117   1.407       .  A
C1117      C1118   1.405       .  A
C1117      H1127   1.083       .  S
C1118      H1128   1.082       .  S
