geometry optimzed in LAMMPS
_audit_creation_date              2020-12-01 
_audit_creation_method            'lammps2cif' 
_symmetry_space_group_name_H-M    'P1' 
_symmetry_Int_Tables_number       1 
_symmetry_cell_setting            triclinic 
loop_ 
_symmetry_equiv_pos_as_xyz 
  x,y,z 
_cell_length_a                    29.70408249 
_cell_length_b                    47.54678011567549 
_cell_length_c                    43.61193108787079 
_cell_angle_alpha                 89.71617170345607 
_cell_angle_beta                  90.19723543142008 
_cell_angle_gamma                 90.31745214994064 
loop_ 
_atom_site_label 
_atom_site_type_symbol 
_atom_site_fract_x 
_atom_site_fract_y 
_atom_site_fract_z 
_atom_site_charge 
O1          O  0.28740997  0.99789201  0.04554478    -0.72000
O2          O  0.28703331  0.00005261  0.45847958    -0.72200
O3          O  0.28839481  0.03890123  0.00343248    -0.72000
O4          O  0.28600344  0.95889681  0.50105084    -0.72000
O5          O  0.21292188  0.95958972  0.00011970    -0.72000
O6          O  0.21526218  0.03944914  0.50353280    -0.72000
O7          O  0.21409532  0.00111943  0.45847511    -0.72000
O8          O  0.21435840  0.99790779  0.04561776    -0.72200
V9          V  0.28580242  0.99892827  0.00207386     1.35200
V10         V  0.21556762  0.99949767  0.50197781     1.35200
C11         C  0.25104414  0.99798896  0.06047966     0.77300
C12         C  0.25045424  0.00074028  0.44352498     0.77300
C13         C  0.25219531  0.05277604  0.50415641     0.77200
C14         C  0.24899671  0.94564105  0.49996028     0.77200
O15         O  0.28763569  0.00053853  0.20789808    -0.72000
O16         O  0.29011246  0.00176728  0.29508492    -0.72200
O17         O  0.28970772  0.96114135  0.25234319    -0.72000
O18         O  0.28829321  0.04119381  0.25050835    -0.72000
O19         O  0.21534229  0.04039875  0.24856642    -0.72000
O20         O  0.21681480  0.96052140  0.25611150    -0.72000
O21         O  0.21721275  0.00343106  0.29564292    -0.72000
O22         O  0.21479364  0.99731889  0.20885846    -0.72200
V23         V  0.28755662  0.00115545  0.25148559     1.35200
V24         V  0.21742675  0.00045117  0.25226468     1.35200
C25         C  0.25075888  0.99825775  0.19347026     0.77300
C26         C  0.25402531  0.00302683  0.31030835     0.77300
C27         C  0.25356636  0.94722163  0.25532656     0.77200
C28         C  0.25163180  0.05451613  0.24867428     0.77200
C29         C  0.25524408  0.17402705  0.51765175     0.02900
C30         C  0.21463555  0.18909270  0.51937747    -0.13200
C31         C  0.21495975  0.21861351  0.52059997     0.00400
C32         C  0.25622155  0.23307046  0.52131065    -0.11700
C33         C  0.29699036  0.21839479  0.52004515     0.02900
C34         C  0.29621998  0.18899946  0.51725310    -0.11100
H35         H  0.18274422  0.17791092  0.51922690     0.08500
H36         H  0.25656610  0.25583951  0.52249015     0.06100
H37         H  0.32765949  0.17778926  0.51487341     0.05900
C38         C  0.25157288  0.17573796  0.22849188     0.02900
C39         C  0.21402832  0.19286299  0.23386385    -0.13200
C40         C  0.21329315  0.22143366  0.22451971     0.00400
C41         C  0.25373655  0.23305551  0.21297361    -0.11700
C42         C  0.29402199  0.21755763  0.21287498     0.02900
C43         C  0.29155323  0.18840075  0.21806865    -0.11100
H44         H  0.18521894  0.18340156  0.24511835     0.08500
H45         H  0.25451417  0.25425399  0.20429005     0.06100
H46         H  0.32119125  0.17563088  0.21472365     0.05900
C47         C  0.24167181  0.82420256  0.48882198     0.02900
C48         C  0.28200300  0.80893386  0.48757183    -0.13200
C49         C  0.28145047  0.77944257  0.48636439     0.00400
C50         C  0.24010456  0.76505355  0.48579667    -0.11700
C51         C  0.19951254  0.77993331  0.48701210     0.02900
C52         C  0.20045311  0.80942672  0.48896215    -0.11100
H53         H  0.31400490  0.82000245  0.48747229     0.08500
H54         H  0.23951227  0.74228596  0.48462827     0.06100
H55         H  0.16907905  0.82078166  0.49089707     0.05900
C56         C  0.25747666  0.82539665  0.26269124     0.02900
C57         C  0.29824069  0.81049358  0.26430255    -0.13200
C58         C  0.29828819  0.78094319  0.26580779     0.00400
C59         C  0.25709777  0.76635998  0.26690763    -0.11700
C60         C  0.21616506  0.78085982  0.26532287     0.02900
C61         C  0.21658687  0.81037484  0.26355648    -0.11100
H62         H  0.32995532  0.82186412  0.26412434     0.08500
H63         H  0.25688998  0.74360901  0.26863506     0.06100
H64         H  0.18500170  0.82165602  0.26263244     0.05900
C65         C  0.48918614  0.67401357  0.98652953     0.02900
C66         C  0.44870706  0.68901428  0.98419282    -0.13200
C67         C  0.44906831  0.71848715  0.98241256     0.00400
C68         C  0.49026877  0.73305134  0.98293449    -0.11700
C69         C  0.03083879  0.71849981  0.98604150     0.02900
C70         C  0.03004772  0.68898209  0.98806344    -0.11100
H71         H  0.41684195  0.67780110  0.98461786     0.08500
H72         H  0.49059173  0.75583678  0.98188316     0.06100
H73         H  0.06138954  0.67755749  0.99018622     0.05900
C74         C  0.50562477  0.67437482  0.26776826     0.02900
C75         C  0.46541082  0.68973047  0.26893685    -0.13200
C76         C  0.46615517  0.71927365  0.26975016     0.00400
C77         C  0.50774422  0.73344045  0.26903169    -0.11700
C78         C  0.04817438  0.71852644  0.26820699     0.02900
C79         C  0.04693252  0.68898284  0.26713165    -0.11100
H80         H  0.43342170  0.67864572  0.26884029     0.08500
H81         H  0.50864372  0.75623193  0.26883859     0.06100
H82         H  0.07808614  0.67729805  0.26582617     0.05900
C83         C  0.00587672  0.32469644  0.01584872     0.02900
C84         C  0.04706617  0.31026696  0.01794897    -0.13200
C85         C  0.04783922  0.28078170  0.02108400     0.00400
C86         C  0.00705024  0.26575050  0.02141454    -0.11700
C87         C  0.46569992  0.27960759  0.02036966     0.02900
C88         C  0.46507944  0.30903724  0.01850907    -0.11100
H89         H  0.07848211  0.32192632  0.01691171     0.08500
H90         H  0.00734046  0.24298495  0.02286282     0.06100
H91         H  0.43305479  0.31983817  0.01779711     0.05900
C92         C  0.99615940  0.32597038  0.22900212     0.02900
C93         C  0.03738649  0.31152172  0.23107126    -0.13200
C94         C  0.04119900  0.28321184  0.22138954     0.00400
C95         C  0.00238742  0.27041237  0.20883727    -0.11700
C96         C  0.45993065  0.28309180  0.21041942     0.02900
C97         C  0.45719190  0.31119535  0.21972931    -0.11100
H98         H  0.06612927  0.32278648  0.24010417     0.08500
H99         H  0.00417742  0.24997278  0.19831318     0.06100
H100        H  0.42475245  0.32147475  0.22057640     0.05900
O101        O  0.03205117  0.49929087  0.45966940    -0.72000
O102        O  0.02906839  0.50283198  0.04652963    -0.72200
O103        O  0.03402406  0.46115730  0.50571570    -0.72000
O104        O  0.02742287  0.54086639  0.00112039    -0.72000
O105        O  0.45419616  0.53822854  0.49950854    -0.72000
O106        O  0.46048704  0.45832142  0.00438381    -0.72000
O107        O  0.45579111  0.50018974  0.04558648    -0.72000
O108        O  0.45899248  0.49648590  0.45865320    -0.72200
V109        V  0.02922687  0.50095988  0.00316777     1.35200
V110        V  0.45876375  0.49833341  0.00208735     1.35200
C111        C  0.49594458  0.49731694  0.44433138     0.77300
C112        C  0.49172711  0.50218996  0.06106249     0.77300
C113        C  0.99870550  0.44621385  0.00598108     0.77200
C114        C  0.98983888  0.55312929  0.99963909     0.77200
O115        O  0.45682262  0.49640959  0.29548457    -0.72000
O116        O  0.45857491  0.50416328  0.20879584    -0.72200
O117        O  0.45616619  0.46041003  0.24763363    -0.72000
O118        O  0.45930616  0.54017726  0.25655429    -0.72000
O119        O  0.03238303  0.53941173  0.25360664    -0.72000
O120        O  0.02905871  0.45943073  0.25175001    -0.72000
O121        O  0.03126053  0.50044712  0.20929484    -0.72000
O122        O  0.02973245  0.49846604  0.29623114    -0.72200
V123        V  0.45905376  0.50026997  0.25216535     1.35200
V124        V  0.02920921  0.49946279  0.25273424     1.35200
C125        C  0.99297679  0.49695951  0.31074596     0.77300
C126        C  0.99528181  0.50270119  0.19398094     0.77300
C127        C  0.49218511  0.44631447  0.24827738     0.77200
C128        C  0.49647140  0.55330796  0.25614665     0.77200
C129        C  0.03308303  0.50302689  0.36040785    -0.09300
C130        C  0.99290715  0.49635033  0.34485148     0.06900
C131        C  0.45322909  0.49176735  0.36256075    -0.03100
C132        C  0.45557378  0.49204399  0.39459506    -0.07600
C133        C  0.49644909  0.49665681  0.41020747     0.06000
C134        C  0.03529471  0.50371183  0.39243289    -0.02600
Br135      Br  0.09205031  0.51494084  0.40993389    -0.02300
H136        H  0.06314147  0.50831649  0.34757066     0.09900
H137        H  0.42480161  0.48866862  0.40738290     0.07900
Br138      Br  0.39461892  0.48527492  0.34504412    -0.02700
C139        C  0.45560714  0.51047704  0.14442690    -0.09300
C140        C  0.99556440  0.50316455  0.15989388     0.06900
C141        C  0.03377550  0.49560746  0.14253470    -0.03100
C142        C  0.03155342  0.49576061  0.11054633    -0.07600
C143        C  0.49152900  0.50309539  0.09505917     0.06000
C144        C  0.45328274  0.51049742  0.11235827    -0.02600
Br145      Br  0.39721310  0.52182082  0.09413535    -0.02300
H146        H  0.42587973  0.51629472  0.15718241     0.09900
H147        H  0.06114130  0.48958969  0.09782876     0.07900
Br148      Br  0.08988845  0.48356407  0.16019549    -0.02700
C149        C  0.47916763  0.37459909  0.21158964    -0.09300
C150        C  0.49366915  0.35656599  0.23521702     0.06900
C151        C  0.00664132  0.36847230  0.26358779    -0.03100
C152        C  0.00579869  0.39776393  0.26758294    -0.07600
C153        C  0.49152183  0.41552747  0.24386664     0.06000
C154        C  0.47812236  0.40378730  0.21567670    -0.02600
Br155      Br  0.46106100  0.42691684  0.18140657    -0.02300
H156        H  0.46955297  0.36594701  0.18956305     0.09900
H157        H  0.01590659  0.40659941  0.28941585     0.07900
Br158      Br  0.02329374  0.34547604  0.29801983    -0.02700
C159        C  0.47689435  0.39835939  0.48831213    -0.09300
C160        C  0.00131696  0.41526159  0.00855989     0.06900
C161        C  0.02664122  0.40208420  0.03190008    -0.03100
C162        C  0.02822580  0.37265619  0.03366865    -0.07600
C163        C  0.00490393  0.35584863  0.01241150     0.06000
C164        C  0.47895125  0.36895410  0.48986155    -0.02600
Br165      Br  0.44899593  0.34815992  0.45804440    -0.02300
H166        H  0.45752583  0.40821317  0.47014706     0.09900
H167        H  0.04699760  0.36284008  0.05213994     0.07900
Br168      Br  0.05697674  0.42329876  0.06318576    -0.02700
C169        C  0.02032075  0.63039851  0.23871963    -0.09300
C170        C  0.50406316  0.64325136  0.26552031     0.06900
C171        C  0.48488292  0.62642406  0.28884734    -0.02700
C172        C  0.48174387  0.59719424  0.28515005    -0.07600
C173        C  0.49827636  0.58424542  0.25866357     0.06000
C174        C  0.01765728  0.60114905  0.23518582    -0.02600
Br175      Br  0.03859852  0.58510452  0.19757608    -0.02300
H176        H  0.03450242  0.64312238  0.22043779     0.09900
H177        H  0.46732791  0.58445165  0.30333573     0.07900
Br178      Br  0.46500466  0.64223005  0.32685692    -0.02700
C179        C  0.46855648  0.59623779  0.97104571    -0.09300
C180        C  0.98770754  0.58401468  0.99745469     0.06900
C181        C  0.00566415  0.60129653  0.52064289    -0.03100
C182        C  0.00597459  0.63057630  0.51685027    -0.07600
C183        C  0.98818132  0.64307016  0.99020170     0.06000
C184        C  0.46895450  0.62549134  0.96704434    -0.02600
Br185      Br  0.44516079  0.64032462  0.92938031    -0.02300
H186        H  0.45432205  0.58303235  0.95325984     0.09900
H187        H  0.01972136  0.64367579  0.53489745     0.07900
Br188      Br  0.02789897  0.58580829  0.55845787    -0.02700
C189        C  0.16339428  0.74711317  0.29058521    -0.09300
C190        C  0.17303696  0.76498320  0.26568555     0.06900
C191        C  0.14168954  0.76702052  0.24140994    -0.03100
C192        C  0.10131066  0.75171948  0.24263067    -0.07600
C193        C  0.09163344  0.73395412  0.26757485     0.06000
C194        C  0.12306188  0.73174204  0.29173407    -0.02600
Br195      Br  0.11136029  0.70922308  0.32749367    -0.02300
H196        H  0.18710251  0.74542158  0.30942903     0.09900
H197        H  0.07752067  0.75342432  0.22383496     0.07900
Br198      Br  0.15346037  0.78905691  0.20528126    -0.02700
C199        C  0.37290107  0.77077483  0.28973877    -0.09300
C200        C  0.34135905  0.76524735  0.26644462     0.06900
C201        C  0.35121749  0.74453589  0.24442021    -0.03100
C202        C  0.39179333  0.72980372  0.24607865    -0.07600
C203        C  0.42332508  0.73524918  0.26938220     0.06000
C204        C  0.41342916  0.75587835  0.29150979    -0.02600
Br205      Br  0.45247525  0.76326021  0.32574869    -0.02300
H206        H  0.36551476  0.78635172  0.30703097     0.09900
H207        H  0.39909345  0.71424449  0.22874707     0.07900
Br208      Br  0.31170505  0.73643627  0.21061844    -0.02700
C209        C  0.14270775  0.74925111  0.01269117    -0.09300
C210        C  0.15611693  0.76450990  0.98662274     0.06900
C211        C  0.12810234  0.76459630  0.46049878    -0.03100
C212        C  0.08740756  0.74957838  0.46074838    -0.07600
C213        C  0.07408825  0.73416937  0.98672644     0.06000
C214        C  0.10191669  0.73428946  0.01298016    -0.02600
Br215      Br  0.08444481  0.71562979  0.05022748    -0.02300
H216        H  0.16383391  0.74925002  0.03299237     0.09900
H217        H  0.06629346  0.74963967  0.44043914     0.07900
Br218      Br  0.14493893  0.78395051  0.42356967    -0.02700
C219        C  0.33487942  0.74776798  0.45961287    -0.09300
C220        C  0.32427326  0.76369901  0.98559172     0.06900
C221        C  0.35492920  0.76466512  0.01030587    -0.03100
C222        C  0.39559049  0.75008685  0.00860566    -0.07600
C223        C  0.40627178  0.73419809  0.98264770     0.06000
C224        C  0.37560579  0.73313610  0.45794626    -0.02600
Br225      Br  0.38880904  0.71312011  0.42100906    -0.02300
H226        H  0.31168958  0.74705503  0.44039851     0.09900
H227        H  0.41871851  0.75075922  0.02786134     0.07900
Br228      Br  0.34179495  0.78434584  0.04750631    -0.02700
C229        C  0.34383523  0.25435841  0.18809520    -0.09300
C230        C  0.33855031  0.23229894  0.20961025     0.06900
C231        C  0.37474294  0.22674657  0.23003422    -0.03100
C232        C  0.41413218  0.24286539  0.22860550    -0.07600
C233        C  0.41868724  0.26533816  0.20793314     0.06000
C234        C  0.38311555  0.27102571  0.18742629    -0.02600
Br235      Br  0.38670141  0.30116766  0.15815075    -0.02300
H236        H  0.31698485  0.25905618  0.17204707     0.09900
H237        H  0.44074856  0.23872778  0.24504284     0.07900
Br238      Br  0.37184734  0.19998639  0.26320357    -0.02700
C239        C  0.12843343  0.22361450  0.22434443    -0.09300
C240        C  0.16992803  0.23811150  0.22553028     0.06900
C241        C  0.16795622  0.26789504  0.22794235    -0.03100
C242        C  0.12662118  0.28187483  0.22473514    -0.07600
C243        C  0.08514602  0.26724260  0.22388169     0.06000
C244        C  0.08713012  0.23745254  0.22629706    -0.02600
Br245      Br  0.03723924  0.21353829  0.23760158    -0.02300
H246        H  0.12728050  0.20089512  0.22298735     0.09900
H247        H  0.12758788  0.30459454  0.22398976     0.07900
Br248      Br  0.21776076  0.29131745  0.24037909    -0.02700
C249        C  0.37049757  0.23091946  0.49615808    -0.09300
C250        C  0.34044036  0.23385289  0.52070365     0.06900
C251        C  0.35228172  0.25158136  0.04534885    -0.03100
C252        C  0.39313745  0.26636566  0.04479817    -0.07600
C253        C  0.42297858  0.26353339  0.02018624     0.06000
C254        C  0.41145161  0.24561510  0.49570128    -0.02600
Br255      Br  0.44943554  0.24164922  0.46048244    -0.02300
H256        H  0.36171377  0.21749253  0.47702472     0.09900
H257        H  0.40196944  0.27987366  0.06385947     0.07900
Br258      Br  0.31523097  0.25516743  0.08109135    -0.02700
C259        C  0.14265693  0.23178994  0.04550661    -0.09300
C260        C  0.17223905  0.23454528  0.52063333     0.06900
C261        C  0.16095071  0.25282015  0.49627852    -0.03100
C262        C  0.12088722  0.26813879  0.49720001    -0.07600
C263        C  0.09116139  0.26539089  0.02200936     0.06000
C264        C  0.10244014  0.24705967  0.04640809    -0.02600
Br265      Br  0.06518976  0.24306886  0.08207575    -0.02300
H266        H  0.15118378  0.21797597  0.06446222     0.09900
H267        H  0.11232368  0.28175720  0.47808239     0.07900
Br268      Br  0.19783237  0.25630124  0.46039824    -0.02700
C269        C  0.28460361  0.13227749  0.25201361    -0.09300
C270        C  0.24982628  0.14481095  0.23488042     0.06900
C271        C  0.21484511  0.12737346  0.22354057    -0.03100
C272        C  0.21558786  0.09831842  0.22914506    -0.07600
C273        C  0.25100852  0.08571621  0.24553281     0.06000
C274        C  0.28552441  0.10317602  0.25739410    -0.02600
Br275      Br  0.33386403  0.08899888  0.28228930    -0.02300
H276        H  0.31128723  0.14524862  0.26143959     0.09900
H277        H  0.18895287  0.08534017  0.21962399     0.07900
Br278      Br  0.16691347  0.14128534  0.19807029    -0.02700
C279        C  0.27962884  0.90086273  0.23634187    -0.09300
C280        C  0.25442244  0.91617015  0.25762160     0.06900
C281        C  0.23057539  0.90150486  0.28063772    -0.03100
C282        C  0.23222963  0.87206820  0.28199124    -0.07600
C283        C  0.25721480  0.85665993  0.26058502     0.06000
C284        C  0.28069136  0.87139809  0.23735518    -0.02600
Br285      Br  0.31178231  0.85245081  0.20499849    -0.02300
H286        H  0.29761060  0.91186712  0.21829601     0.09900
H287        H  0.21421548  0.86113598  0.30006889     0.07900
Br288      Br  0.19746572  0.92070098  0.31186604    -0.02700
C289        C  0.28975041  0.01028901  0.39415777    -0.09300
C290        C  0.25059520  0.00129475  0.40944420     0.06900
C291        C  0.21295321  0.99289880  0.39170972    -0.03100
C292        C  0.21496747  0.99410920  0.35969564    -0.07600
C293        C  0.25407940  0.00310657  0.34438864     0.06000
C294        C  0.29188689  0.01124988  0.36208645    -0.02600
Br295      Br  0.34700938  0.02493048  0.34441748    -0.02300
H296        H  0.31896796  0.01691671  0.40724452     0.09900
H297        H  0.18582572  0.98728103  0.34664857     0.07900
Br298      Br  0.15855535  0.97778759  0.40913535    -0.02700
C299        C  0.21634145  0.98468311  0.11041158    -0.09300
C300        C  0.25134820  0.99819631  0.09445550     0.06900
C301        C  0.28569586  0.01180252  0.11136371    -0.03100
C302        C  0.28496414  0.01111943  0.14342304    -0.07600
C303        C  0.25008516  0.99753028  0.15945160     0.06000
C304        C  0.21542045  0.98417408  0.14253373    -0.02600
Br305      Br  0.16708637  0.96361830  0.16155036    -0.02300
H306        H  0.18979906  0.97405669  0.09781337     0.09900
H307        H  0.31139106  0.02195799  0.15591977     0.07900
Br308      Br  0.33266327  0.03362561  0.09236393    -0.02700
C309        C  0.28155321  0.09612255  0.02869053    -0.09300
C310        C  0.25314147  0.08373918  0.50677817     0.06900
C311        C  0.22530958  0.10109781  0.48866738    -0.03100
C312        C  0.22648378  0.13032011  0.49258848    -0.07600
C313        C  0.25469283  0.14282495  0.51468583     0.06000
C314        C  0.28206052  0.12527139  0.03312512    -0.02600
Br315      Br  0.31808771  0.13938067  0.06639028    -0.02300
H316        H  0.30244310  0.08294105  0.04316389     0.09900
H317        H  0.20561315  0.14339036  0.47798752     0.07900
Br318      Br  0.18700659  0.08613896  0.45710491    -0.02700
C319        C  0.21924615  0.90231578  0.47563310    -0.09300
C320        C  0.24763242  0.91465507  0.49759949     0.06900
C321        C  0.27431088  0.89718188  0.01638948    -0.03100
C322        C  0.27157799  0.86789879  0.01332127    -0.07600
C323        C  0.24314429  0.85543739  0.49129655     0.06000
C324        C  0.21741383  0.87309547  0.47194696    -0.02600
Br325      Br  0.18225929  0.85897480  0.43833242    -0.02300
H326        H  0.19938159  0.91557034  0.46055961     0.09900
H327        H  0.29153983  0.85476181  0.02844141     0.07900
Br328      Br  0.31318154  0.91211137  0.04764315    -0.02700
O329        O  0.28738407  0.99789872  0.54554851    -0.72000
O330        O  0.28704469  0.00005502  0.95847593    -0.72200
O331        O  0.28838482  0.03890296  0.50343156    -0.72000
O332        O  0.28602819  0.95889441  0.00104175    -0.72000
O333        O  0.21289731  0.95959673  0.50012286    -0.72000
O334        O  0.21527224  0.03944130  0.00353982    -0.72000
O335        O  0.21410654  0.00111650  0.95847693    -0.72000
O336        O  0.21433235  0.99791991  0.54561543    -0.72200
V337        V  0.28578436  0.99893046  0.50207752     1.35200
V338        V  0.21558566  0.99949030  0.00197973     1.35200
C339        C  0.25101540  0.99799960  0.56048013     0.77300
C340        C  0.25046334  0.00074103  0.94352397     0.77300
C341        C  0.25220234  0.05277140  0.00416112     0.77200
C342        C  0.24902328  0.94563632  0.99995222     0.77200
O343        O  0.28760750  0.00052714  0.70789424    -0.72000
O344        O  0.29009998  0.00176077  0.79508037    -0.72200
O345        O  0.28967332  0.96113182  0.75234088    -0.72000
O346        O  0.28828597  0.04118395  0.75049984    -0.72000
O347        O  0.21533448  0.04039887  0.74856982    -0.72000
O348        O  0.21678017  0.96052159  0.75610914    -0.72000
O349        O  0.21720060  0.00342896  0.79564406    -0.72000
O350        O  0.21476391  0.99732229  0.70885932    -0.72200
V351        V  0.28753593  0.00114610  0.75148114     1.35200
V352        V  0.21740584  0.00045123  0.75226559     1.35200
C353        C  0.25072733  0.99825576  0.69346892     0.77300
C354        C  0.25401563  0.00302331  0.81030656     0.77300
C355        C  0.25352693  0.94721697  0.75532267     0.77200
C356        C  0.25162892  0.05451118  0.74866989     0.77200
C357        C  0.25523891  0.17402499  0.01764576     0.02900
C358        C  0.21462947  0.18908969  0.01937459    -0.13200
C359        C  0.21495147  0.21861057  0.02060022     0.00400
C360        C  0.25621259  0.23306828  0.02131365    -0.11700
C361        C  0.29698144  0.21839371  0.02004147     0.02900
C362        C  0.29621346  0.18899902  0.01724393    -0.11100
H363        H  0.18273896  0.17790717  0.01922566     0.08500
H364        H  0.25655704  0.25583691  0.02250114     0.06100
H365        H  0.32765375  0.17779082  0.01485981     0.05900
C366        C  0.25158925  0.17573269  0.72847711     0.02900
C367        C  0.21404715  0.19285835  0.73385286    -0.13200
C368        C  0.21331477  0.22143020  0.72451472     0.00400
C369        C  0.25375950  0.23305489  0.71297468    -0.11700
C370        C  0.29404317  0.21755577  0.71287581     0.02900
C371        C  0.29157205  0.18839747  0.71805965    -0.11100
H372        H  0.18523774  0.18339843  0.74510773     0.08500
H373        H  0.25454099  0.25425678  0.70430019     0.06100
H374        H  0.32121270  0.17562944  0.71471631     0.05900
C375        C  0.24169048  0.82419702  0.98881720     0.02900
C376        C  0.28202198  0.80892869  0.98756773    -0.13200
C377        C  0.28147060  0.77943759  0.98636227     0.00400
C378        C  0.24012565  0.76504777  0.98579378    -0.11700
C379        C  0.19953311  0.77992679  0.98700734     0.02900
C380        C  0.20047215  0.80942035  0.98895750    -0.11100
H381        H  0.31402367  0.81999744  0.98746679     0.08500
H382        H  0.23953451  0.74228014  0.98462515     0.06100
H383        H  0.16909747  0.82077448  0.99089186     0.05900
C384        C  0.25741074  0.82539283  0.76267756     0.02900
C385        C  0.29817758  0.81049394  0.76429873    -0.13200
C386        C  0.29823097  0.78094428  0.76581262     0.00400
C387        C  0.25704335  0.76635749  0.76690927    -0.11700
C388        C  0.21610764  0.78085350  0.76531471     0.02900
C389        C  0.21652362  0.81036815  0.76353988    -0.11100
H390        H  0.32988970  0.82186722  0.76412206     0.08500
H391        H  0.25684039  0.74360692  0.76864246     0.06100
H392        H  0.18493651  0.82164686  0.76260935     0.05900
C393        C  0.48917153  0.67401961  0.48654778     0.02900
C394        C  0.44869133  0.68901821  0.48420343    -0.13200
C395        C  0.44904955  0.71849099  0.48242100     0.00400
C396        C  0.49024867  0.73305686  0.48294566    -0.11700
C397        C  0.03081648  0.71850658  0.48606428     0.02900
C398        C  0.03002593  0.68898891  0.48809249    -0.11100
H399        H  0.41682755  0.67780326  0.48462413     0.08500
H400        H  0.49056922  0.75584211  0.48189160     0.06100
H401        H  0.06136681  0.67756463  0.49022221     0.05900
C402        C  0.50555840  0.67437458  0.76779346     0.02900
C403        C  0.46534769  0.68973333  0.76896812    -0.13200
C404        C  0.46609739  0.71927656  0.76979117     0.00400
C405        C  0.50768896  0.73344045  0.76907730    -0.11700
C406        C  0.04811729  0.71852177  0.76822652     0.02900
C407        C  0.04687211  0.68897837  0.76714782    -0.11100
H408        H  0.43335611  0.67865114  0.76886488     0.08500
H409        H  0.50859313  0.75623191  0.76888813     0.06100
H410        H  0.07802465  0.67729288  0.76583702     0.05900
C411        C  0.00589216  0.32470355  0.51581651     0.02900
C412        C  0.04708190  0.31027491  0.51791933    -0.13200
C413        C  0.04785504  0.28079058  0.52106290     0.00400
C414        C  0.00706652  0.26575915  0.52140070    -0.11700
C415        C  0.46571227  0.27960930  0.52035283     0.02900
C416        C  0.46508743  0.30903913  0.51849021    -0.11100
H417        H  0.07849755  0.32193410  0.51687904     0.08500
H418        H  0.00735806  0.24299417  0.52285965     0.06100
H419        H  0.43306134  0.31983822  0.51777693     0.05900
C420        C  0.99617291  0.32595524  0.72907088     0.02900
C421        C  0.03740092  0.31150653  0.73113504    -0.13200
C422        C  0.04121713  0.28320200  0.72143427     0.00400
C423        C  0.00240800  0.27040805  0.70887263    -0.11700
C424        C  0.45995228  0.28308670  0.71048670     0.02900
C425        C  0.45721670  0.31118425  0.71981726    -0.11100
H426        H  0.06614204  0.32276851  0.74017246     0.08500
H427        H  0.00419891  0.24997666  0.69833125     0.06100
H428        H  0.42477855  0.32146502  0.72066834     0.05900
O429        O  0.03208720  0.49926682  0.95967667    -0.72000
O430        O  0.02904301  0.50282498  0.54652521    -0.72200
O431        O  0.03404439  0.46114781  0.00573868    -0.72000
O432        O  0.02738395  0.54087582  0.50113050    -0.72000
O433        O  0.45420970  0.53822411  0.99949739    -0.72000
O434        O  0.46047898  0.45832500  0.50437726    -0.72000
O435        O  0.45578811  0.50018440  0.54558894    -0.72000
O436        O  0.45901162  0.49647468  0.95865221    -0.72200
V437        V  0.02919644  0.50096905  0.50316166     1.35200
V438        V  0.45875293  0.49833725  0.50208927     1.35200
C439        C  0.49596601  0.49730457  0.94433302     0.77300
C440        C  0.49172633  0.50218023  0.56106319     0.77300
C441        C  0.99868929  0.44621982  0.50595748     0.77200
C442        C  0.98979779  0.55313607  0.49965208     0.77200
O443        O  0.45685022  0.49640711  0.79548728    -0.72000
O444        O  0.45859002  0.50413652  0.70879787    -0.72200
O445        O  0.45621529  0.46039508  0.74765236    -0.72000
O446        O  0.45929824  0.54016490  0.75654414    -0.72000
O447        O  0.03236779  0.53941337  0.75358773    -0.72000
O448        O  0.02907932  0.45942909  0.75176417    -0.72000
O449        O  0.03125691  0.50043173  0.70928985    -0.72000
O450        O  0.02974335  0.49847943  0.79622851    -0.72200
V451        V  0.45907515  0.50025653  0.75216813     1.35200
V452        V  0.02921302  0.49946242  0.75273079     1.35200
C453        C  0.99299048  0.49696724  0.81074640     0.77300
C454        C  0.99527344  0.50267446  0.69397850     0.77300
C455        C  0.49224240  0.44630820  0.74830594     0.77200
C456        C  0.49645306  0.55330686  0.75613018     0.77200
C457        C  0.03315208  0.50290658  0.86040936    -0.09300
C458        C  0.99292385  0.49635242  0.84485334     0.06900
C459        C  0.45324670  0.49180301  0.86256114    -0.03100
C460        C  0.45559169  0.49206885  0.89459499    -0.07600
C461        C  0.49647460  0.49664764  0.91020933     0.06000
C462        C  0.03537741  0.50357559  0.89243479    -0.02600
Br463      Br  0.09223378  0.51461150  0.90992958    -0.02300
H464        H  0.06324910  0.50810637  0.84757241     0.09900
H465        H  0.42481230  0.48871483  0.90738091     0.07900
Br466      Br  0.39461967  0.48536786  0.84504529    -0.02700
C467        C  0.45562026  0.51046030  0.64443033    -0.09300
C468        C  0.99554754  0.50312749  0.65989129     0.06900
C469        C  0.03373890  0.49553665  0.64253022    -0.03100
C470        C  0.03151673  0.49569799  0.61054139    -0.07600
C471        C  0.49153129  0.50307326  0.59506019     0.06000
C472        C  0.45329221  0.51048373  0.61236207    -0.02600
Br473      Br  0.39722710  0.52182143  0.59414354    -0.02300
H474        H  0.42590058  0.51628963  0.65718790     0.09900
H475        H  0.06109031  0.48950503  0.59782132     0.07900
Br476      Br  0.08981463  0.48342750  0.66019145    -0.02700
C477        C  0.47921082  0.37457572  0.71166265    -0.09300
C478        C  0.49371142  0.35655170  0.73529816     0.06900
C479        C  0.00668088  0.36846809  0.76364143    -0.03100
C480        C  0.00584783  0.39776194  0.76762321    -0.07600
C481        C  0.49159219  0.41551867  0.74391215     0.06000
C482        C  0.47817928  0.40376567  0.71573195    -0.02600
Br483      Br  0.46111475  0.42687902  0.68144983    -0.02300
H484        H  0.46958548  0.36591462  0.68964256     0.09900
H485        H  0.01597352  0.40660546  0.78944875     0.07900
Br486      Br  0.02334583  0.34548320  0.79807989    -0.02700
C487        C  0.47689247  0.39835486  0.98832756    -0.09300
C488        C  0.00131172  0.41526775  0.50853081     0.06900
C489        C  0.02663808  0.40209188  0.53187101    -0.03100
C490        C  0.02823124  0.37266415  0.53363772    -0.07600
C491        C  0.00491813  0.35585538  0.51237755     0.06000
C492        C  0.47894712  0.36894953  0.98987776    -0.02600
Br493      Br  0.44898497  0.34815556  0.95806320    -0.02300
H494        H  0.45752060  0.40820869  0.97016396     0.09900
H495        H  0.04700208  0.36284916  0.55210999     0.07900
Br496      Br  0.05696676  0.42330786  0.56315861    -0.02700
C497        C  0.02028214  0.63040206  0.73872759    -0.09300
C498        C  0.50399231  0.64325142  0.76552937     0.06900
C499        C  0.48479518  0.62641469  0.78884218    -0.02700
C500        C  0.48167275  0.59718527  0.78513466    -0.07600
C501        C  0.49823336  0.58424537  0.75865099     0.06000
C502        C  0.01762927  0.60115299  0.73518471    -0.02600
Br503      Br  0.03859460  0.58512034  0.69757539    -0.02300
H504        H  0.03447621  0.64313126  0.72045449     0.09900
H505        H  0.46724857  0.58443569  0.80331157     0.07900
Br506      Br  0.46487031  0.64220583  0.82684777    -0.02700
C507        C  0.46857786  0.59624410  0.47104609    -0.09300
C508        C  0.98766340  0.58402150  0.49747159     0.06900
C509        C  0.00575725  0.60129167  0.02060676    -0.03100
C510        C  0.00605688  0.63057093  0.01681217    -0.07600
C511        C  0.98815805  0.64307698  0.49022237     0.06000
C512        C  0.46897660  0.62549798  0.46704756    -0.02600
Br513      Br  0.44523011  0.64033421  0.42937116    -0.02300
H514        H  0.45437190  0.58303922  0.45324965     0.09900
H515        H  0.01984137  0.64367133  0.03484526     0.07900
Br516      Br  0.02806988  0.58580783  0.05840267    -0.02700
C517        C  0.16333714  0.74711588  0.79059108    -0.09300
C518        C  0.17298226  0.76497406  0.76568178     0.06900
C519        C  0.14163703  0.76700002  0.74140369    -0.03100
C520        C  0.10125750  0.75169997  0.74263159    -0.07600
C521        C  0.09157740  0.73394748  0.76758603     0.06000
C522        C  0.12300371  0.73174633  0.79174738    -0.02600
Br523      Br  0.11129611  0.70924512  0.82751907    -0.02300
H524        H  0.18704352  0.74543337  0.80943715     0.09900
H525        H  0.07746842  0.75339627  0.72383429     0.07900
Br526      Br  0.15341061  0.78902069  0.70526417    -0.02700
C527        C  0.37283546  0.77078072  0.78976017    -0.09300
C528        C  0.34130482  0.76525248  0.76645893     0.06900
C529        C  0.35117669  0.74454383  0.74443495    -0.03100
C530        C  0.39175093  0.72981151  0.74610290    -0.07600
C531        C  0.42326993  0.73525497  0.76941490     0.06000
C532        C  0.41336438  0.75588524  0.79153964    -0.02600
Br533      Br  0.45239841  0.76327178  0.82578374    -0.02300
H534        H  0.36543982  0.78635746  0.80705055     0.09900
H535        H  0.39906021  0.71425357  0.72877170     0.07900
Br536      Br  0.31168514  0.73644946  0.71062069    -0.02700
C537        C  0.14269539  0.74925530  0.51270111    -0.09300
C538        C  0.15609516  0.76451743  0.48663268     0.06900
C539        C  0.12813658  0.76458251  0.96048262    -0.03100
C540        C  0.08744107  0.74956515  0.96072767    -0.07600
C541        C  0.07406527  0.73417764  0.48674633     0.06000
C542        C  0.10190301  0.73429502  0.51299559    -0.02600
Br543      Br  0.08444054  0.71563678  0.55024573    -0.02300
H544        H  0.16382918  0.74925142  0.53299857     0.09900
H545        H  0.06633506  0.74962272  0.94041442     0.07900
Br546      Br  0.14499343  0.78392637  0.92355136    -0.02700
C547        C  0.33489818  0.74776462  0.95960939    -0.09300
C548        C  0.32425264  0.76370278  0.48559477     0.06900
C549        C  0.35490557  0.76466702  0.51031067    -0.03100
C550        C  0.39556710  0.75008892  0.50861175    -0.07600
C551        C  0.40625128  0.73420067  0.48265401     0.06000
C552        C  0.37562496  0.73313396  0.95794084    -0.02600
Br553      Br  0.38882794  0.71312159  0.92100133    -0.02300
H554        H  0.31170687  0.74705154  0.94039586     0.09900
H555        H  0.41869316  0.75076075  0.52786877     0.07900
Br556      Br  0.34176572  0.78434385  0.54751254    -0.02700
C557        C  0.34387906  0.25435415  0.68811425    -0.09300
C558        C  0.33857292  0.23229730  0.70962979     0.06900
C559        C  0.37474386  0.22674680  0.73007208    -0.03100
C560        C  0.41413434  0.24286574  0.72866110    -0.07600
C561        C  0.41870948  0.26533576  0.70798763     0.06000
C562        C  0.38316200  0.27101968  0.68746074    -0.02600
Br563      Br  0.38679188  0.30115205  0.65817635    -0.02300
H564        H  0.31704398  0.25905001  0.67205363     0.09900
H565        H  0.44073682  0.23872870  0.74510979     0.07900
Br566      Br  0.37181178  0.19998717  0.76324031    -0.02700
C567        C  0.12845868  0.22360789  0.72432671    -0.09300
C568        C  0.16995037  0.23810633  0.72553037     0.06900
C569        C  0.16797636  0.26788727  0.72796992    -0.03100
C570        C  0.12663940  0.28186754  0.72477863    -0.07600
C571        C  0.08516603  0.26723355  0.72391128     0.06000
C572        C  0.08715376  0.23744132  0.72629405    -0.02600
Br573      Br  0.03726758  0.21351185  0.73757270    -0.02300
H574        H  0.12731087  0.20089038  0.72294603     0.09900
H575        H  0.12760398  0.30458701  0.72405568     0.07900
Br576      Br  0.21778380  0.29130097  0.74041985    -0.02700
C577        C  0.37046721  0.23094733  0.99614313    -0.09300
C578        C  0.34042933  0.23385265  0.02070362     0.06900
C579        C  0.35227714  0.25160777  0.54533011    -0.03100
C580        C  0.39313267  0.26639187  0.54477295    -0.07600
C581        C  0.42299231  0.26353243  0.52017533     0.06000
C582        C  0.41141927  0.24564519  0.99569121    -0.02600
Br583      Br  0.44937693  0.24172419  0.96045299    -0.02300
H584        H  0.36166940  0.21754111  0.97699522     0.09900
H585        H  0.40195096  0.27992054  0.56381958     0.07900
Br586      Br  0.31520933  0.25522944  0.58105991    -0.02700
C587        C  0.14267645  0.23181247  0.54550876    -0.09300
C588        C  0.17222911  0.23454109  0.02063868     0.06900
C589        C  0.16094688  0.25283146  0.99629616    -0.03100
C590        C  0.12088130  0.26814759  0.99722334    -0.07600
C591        C  0.09117658  0.26540001  0.52199328     0.06000
C592        C  0.10246219  0.24708517  0.54640488    -0.02600
Br593      Br  0.06522344  0.24312211  0.58208155    -0.02300
H594        H  0.15120880  0.21801094  0.56447377     0.09900
H595        H  0.11232329  0.28177806  0.97811493     0.07900
Br596      Br  0.19783727  0.25633692  0.96042255    -0.02700
C597        C  0.28463552  0.13226783  0.75197814    -0.09300
C598        C  0.24984081  0.14480506  0.73486462     0.06900
C599        C  0.21483884  0.12737069  0.72354712    -0.03100
C600        C  0.21557796  0.09831638  0.72915580    -0.07600
C601        C  0.25101508  0.08571089  0.74552382     0.06000
C602        C  0.28555422  0.10316692  0.75736021    -0.02600
Br603      Br  0.33392894  0.08898676  0.78222152    -0.02300
H604        H  0.31133531  0.14523534  0.76138805     0.09900
H605        H  0.18892559  0.08534100  0.71965286     0.07900
Br606      Br  0.16687899  0.14128231  0.69810104    -0.02700
C607        C  0.27956873  0.90085712  0.73632888    -0.09300
C608        C  0.25437134  0.91616539  0.75761288     0.06900
C609        C  0.23052030  0.90150079  0.78062757    -0.03100
C610        C  0.23216558  0.87206391  0.78197754    -0.07600
C611        C  0.25714527  0.85665531  0.76056896     0.06000
C612        C  0.28062160  0.87139236  0.73733856    -0.02600
Br613      Br  0.31170045  0.85244279  0.70497806    -0.02300
H614        H  0.29755162  0.91186110  0.71828318     0.09900
H615        H  0.21415107  0.86113189  0.80005513     0.07900
Br616      Br  0.19741852  0.92069772  0.81185912    -0.02700
C617        C  0.28975110  0.01029292  0.89415355    -0.09300
C618        C  0.25059937  0.00129636  0.90944295     0.06900
C619        C  0.21295679  0.99289698  0.89171102    -0.03100
C620        C  0.21496676  0.99410587  0.85969680    -0.07600
C621        C  0.25407511  0.00310489  0.84438688     0.06000
C622        C  0.29188330  0.01125216  0.86208183    -0.02600
Br623      Br  0.34700018  0.02493623  0.84440775    -0.02300
H624        H  0.31896881  0.01692316  0.90723804     0.09900
H625        H  0.18582483  0.98727499  0.84665197     0.07900
Br626      Br  0.15856401  0.97778231  0.90914025    -0.02700
C627        C  0.21630306  0.98469617  0.61040922    -0.09300
C628        C  0.25131326  0.99820816  0.59445544     0.06900
C629        C  0.28566013  0.01181294  0.61136531    -0.03100
C630        C  0.28492899  0.01112516  0.64342424    -0.07600
C631        C  0.25004929  0.99753471  0.65945063     0.06000
C632        C  0.21538046  0.98418460  0.64253122    -0.02600
Br633      Br  0.16703759  0.96363516  0.66154538    -0.02300
H634        H  0.18975925  0.97407252  0.59780927     0.09900
H635        H  0.31135711  0.02196143  0.65592268     0.07900
Br636      Br  0.33262392  0.03364121  0.59236847    -0.02700
C637        C  0.28154111  0.09612297  0.52869597    -0.09300
C638        C  0.25314154  0.08373500  0.00678238     0.06900
C639        C  0.22529202  0.10109055  0.98868033    -0.03100
C640        C  0.22646649  0.13031341  0.99259691    -0.07600
C641        C  0.25468957  0.14282218  0.01468338     0.06000
C642        C  0.28205136  0.12527140  0.53313276    -0.02600
Br643      Br  0.31806735  0.13937697  0.56640529    -0.02300
H644        H  0.30241972  0.08293889  0.54317433     0.09900
H645        H  0.20558339  0.14338097  0.97800116     0.07900
Br646      Br  0.18695938  0.08612725  0.95713682    -0.02700
C647        C  0.21926420  0.90231084  0.97562902    -0.09300
C648        C  0.24766161  0.91465030  0.99758894     0.06900
C649        C  0.27427356  0.89718677  0.51640569    -0.03100
C650        C  0.27154635  0.86790365  0.51333460    -0.07600
C651        C  0.24316420  0.85543216  0.99129027     0.06000
C652        C  0.21742764  0.87309032  0.97194445    -0.02600
Br653      Br  0.18225900  0.85896966  0.93833644    -0.02300
H654        H  0.19939333  0.91556537  0.96055949     0.09900
H655        H  0.29150231  0.85476641  0.52845803     0.07900
Br656      Br  0.31312362  0.91211676  0.54767089    -0.02700
O657        O  0.78733901  0.99803207  0.04551018    -0.72000
O658        O  0.78688189  0.00033129  0.45843944    -0.72200
O659        O  0.78840284  0.03910053  0.00346222    -0.72000
O660        O  0.78579475  0.95910356  0.50093647    -0.72000
O661        O  0.71271518  0.95985847  0.00000510    -0.72000
O662        O  0.71527297  0.03972548  0.50363339    -0.72000
O663        O  0.71395122  0.00150017  0.45847930    -0.72000
O664        O  0.71428773  0.99808752  0.04560807    -0.72200
V665        V  0.78569755  0.99913057  0.00203691     1.35200
V666        V  0.71546589  0.99977329  0.50197311     1.35200
C667        C  0.75098265  0.99813300  0.06045818     0.77300
C668        C  0.75028675  0.00110627  0.44350668     0.77300
C669        C  0.75224132  0.05301794  0.50424092     0.77200
C670        C  0.74875917  0.94588041  0.49981105     0.77200
O671        O  0.78758227  0.00059781  0.20789433    -0.72000
O672        O  0.78998124  0.00190190  0.29508726    -0.72200
O673        O  0.78950356  0.96122529  0.25238187    -0.72000
O674        O  0.78832017  0.04128084  0.25047685    -0.72000
O675        O  0.71536862  0.04055987  0.24850583    -0.72000
O676        O  0.71660740  0.96068578  0.25611387    -0.72000
O677        O  0.71708575  0.00364227  0.29560451    -0.72000
O678        O  0.71473121  0.99745838  0.20883050    -0.72200
V679        V  0.78746720  0.00124461  0.25148532     1.35200
V680        V  0.71733547  0.00061581  0.25223348     1.35200
C681        C  0.75070842  0.99835731  0.19345386     0.77300
C682        C  0.75388104  0.00324340  0.31028859     0.77300
C683        C  0.75332185  0.94734332  0.25535826     0.77200
C684        C  0.75169509  0.05463897  0.24863137     0.77200
C685        C  0.75545776  0.17426900  0.51788342     0.02900
C686        C  0.71483736  0.18930674  0.51977524    -0.13200
C687        C  0.71511097  0.21882852  0.52102302     0.00400
C688        C  0.75635861  0.23331325  0.52160181    -0.11700
C689        C  0.79714332  0.21866769  0.52013859     0.02900
C690        C  0.79640247  0.18927148  0.51733692    -0.11100
H691        H  0.68296659  0.17810122  0.51971898     0.08500
H692        H  0.75667766  0.25608137  0.52280146     0.06100
H693        H  0.82783911  0.17808670  0.51481015     0.05900
C694        C  0.75174226  0.17587391  0.22862186     0.02900
C695        C  0.71413660  0.19296482  0.23391724    -0.13200
C696        C  0.71335689  0.22152340  0.22453933     0.00400
C697        C  0.75380126  0.23317696  0.21303308    -0.11700
C698        C  0.79412247  0.21772203  0.21303753     0.02900
C699        C  0.79174169  0.18857362  0.21829178    -0.11100
H700        H  0.68530644  0.18348246  0.24513066     0.08500
H701        H  0.75456362  0.25436883  0.20431620     0.06100
H702        H  0.82145941  0.17584820  0.21506281     0.05900
C703        C  0.74148908  0.82444162  0.48841830     0.02900
C704        C  0.78185216  0.80919693  0.48725306    -0.13200
C705        C  0.78136217  0.77970180  0.48608836     0.00400
C706        C  0.74004150  0.76528743  0.48546181    -0.11700
C707        C  0.69941182  0.78013528  0.48656127     0.02900
C708        C  0.70028968  0.80963726  0.48846638    -0.11100
H709        H  0.81383254  0.82029013  0.48720648     0.08500
H710        H  0.73949595  0.74251719  0.48434118     0.06100
H711        H  0.66888839  0.82097443  0.49032538     0.05900
C712        C  0.75727079  0.82550682  0.26298518     0.02900
C713        C  0.79807828  0.81064276  0.26464465    -0.13200
C714        C  0.79819960  0.78109143  0.26618009     0.00400
C715        C  0.75704311  0.76647220  0.26728870    -0.11700
C716        C  0.71607547  0.78092654  0.26565613     0.02900
C717        C  0.71641845  0.81044079  0.26384471    -0.11100
H718        H  0.82976652  0.82204147  0.26445050     0.08500
H719        H  0.75689085  0.74372156  0.26902562     0.06100
H720        H  0.68480196  0.82168426  0.26286297     0.05900
C721        C  0.98897124  0.67415631  0.98711075     0.02900
C722        C  0.94852703  0.68916348  0.98456079    -0.13200
C723        C  0.94893983  0.71863217  0.98265431     0.00400
C724        C  0.99016840  0.73317036  0.98323441    -0.11700
C725        C  0.53098212  0.71839835  0.98553613     0.02900
C726        C  0.53025070  0.68886914  0.98739883    -0.11100
H727        H  0.91665283  0.67795711  0.98489186     0.08500
H728        H  0.99054393  0.75595121  0.98206428     0.06100
H729        H  0.56162693  0.67746166  0.98937824     0.05900
C730        C  0.00556447  0.67450244  0.26758839     0.02900
C731        C  0.96534835  0.68984920  0.26891564    -0.13200
C732        C  0.96608676  0.71939442  0.26982706     0.00400
C733        C  0.00767451  0.73356426  0.26906630    -0.11700
C734        C  0.54824848  0.71840080  0.26832487     0.02900
C735        C  0.54700559  0.68885099  0.26736079    -0.11100
H736        H  0.93336482  0.67875776  0.26886646     0.08500
H737        H  0.00857643  0.75635564  0.26894807     0.06100
H738        H  0.57816332  0.67715952  0.26616617     0.05900
C739        C  0.50540722  0.32454301  0.01679973     0.02900
C740        C  0.54670594  0.31021080  0.01881480    -0.13200
C741        C  0.54768698  0.28071747  0.02187748     0.00400
C742        C  0.50699658  0.26557991  0.02216511    -0.11700
C743        C  0.96584946  0.27988046  0.01955121     0.02900
C744        C  0.96542732  0.30930644  0.01752232    -0.11100
H745        H  0.57804481  0.32194846  0.01775533     0.08500
H746        H  0.50743939  0.24281122  0.02351031     0.06100
H747        H  0.93348309  0.32019572  0.01670414     0.05900
C748        C  0.49603461  0.32585432  0.22899473     0.02900
C749        C  0.53727844  0.31142911  0.23102309    -0.13200
C750        C  0.54112836  0.28313599  0.22130580     0.00400
C751        C  0.50232696  0.27032350  0.20875167    -0.11700
C752        C  0.96001966  0.28321020  0.21047514     0.02900
C753        C  0.95730961  0.31132425  0.21973345    -0.11100
H754        H  0.56601685  0.32270546  0.24006003     0.08500
H755        H  0.50415328  0.24989599  0.19820192     0.06100
H756        H  0.92487847  0.32161917  0.22054209     0.05900
O757        O  0.53178910  0.49884011  0.45994843    -0.72000
O758        O  0.52865400  0.50281871  0.04674407    -0.72200
O759        O  0.53347434  0.46093979  0.50622007    -0.72000
O760        O  0.52726984  0.54064192  0.00112084    -0.72000
O761        O  0.95432810  0.53831075  0.49956499    -0.72000
O762        O  0.96105528  0.45840444  0.00391610    -0.72000
O763        O  0.95621287  0.50005945  0.04538911    -0.72000
O764        O  0.95924007  0.49680752  0.45843141    -0.72200
V765        V  0.52886988  0.50074222  0.00341307     1.35200
V766        V  0.95912343  0.49842045  0.00188247     1.35200
C767        C  0.99615743  0.49780629  0.44408700     0.77300
C768        C  0.99214668  0.50211117  0.06085720     0.77300
C769        C  0.49807305  0.44606774  0.00656355     0.77200
C770        C  0.48975740  0.55297977  0.99952297     0.77200
O771        O  0.95686344  0.49662930  0.29534122    -0.72000
O772        O  0.95864115  0.50422339  0.20859034    -0.72200
O773        O  0.95617410  0.46054117  0.24753950    -0.72000
O774        O  0.95937135  0.54031949  0.25629882    -0.72000
O775        O  0.53231453  0.53928620  0.25383703    -0.72000
O776        O  0.52904682  0.45930937  0.25187091    -0.72000
O777        O  0.53119335  0.50038175  0.20946680    -0.72000
O778        O  0.52966316  0.49828872  0.29642031    -0.72200
V779        V  0.95909509  0.50040799  0.25198892     1.35200
V780        V  0.52916250  0.49934027  0.25291270     1.35200
C781        C  0.49289014  0.49675883  0.31092250     0.77300
C782        C  0.49519666  0.50266721  0.19417203     0.77300
C783        C  0.99218602  0.44643957  0.24819027     0.77200
C784        C  0.99654374  0.55344071  0.25589877     0.77200
C785        C  0.53364301  0.50047527  0.36065563    -0.09300
C786        C  0.49272806  0.49603575  0.34504544     0.06900
C787        C  0.95413897  0.49000514  0.36238185    -0.03100
C788        C  0.95644395  0.49046100  0.39442167    -0.07600
C789        C  0.99659042  0.49724518  0.40997837     0.06000
C790        C  0.53592279  0.50098280  0.39268496    -0.02600
Br791      Br  0.59417545  0.50868520  0.41016099    -0.02300
H792        H  0.56435780  0.50405359  0.34786582     0.09900
H793        H  0.92630155  0.48537921  0.40726312     0.07900
Br794      Br  0.89685375  0.48001740  0.34478742    -0.02700
C795        C  0.95593653  0.51066499  0.14416529    -0.09300
C796        C  0.49539699  0.50318717  0.16009060     0.06900
C797        C  0.53365290  0.49585091  0.14267332    -0.03100
C798        C  0.53133377  0.49604330  0.11069352    -0.07600
C799        C  0.99190060  0.50301637  0.09485372     0.06000
C800        C  0.95373073  0.51068571  0.11209080    -0.02600
Br801      Br  0.89799745  0.52248183  0.09374934    -0.02300
H802        H  0.92627149  0.51668594  0.15687376     0.09900
H803        H  0.56097913  0.49004567  0.09793799     0.07900
Br804      Br  0.58996483  0.48404562  0.16023112    -0.02700
C805        C  0.97927999  0.37469926  0.21155092    -0.09300
C806        C  0.99379204  0.35668715  0.23519514     0.06900
C807        C  0.50659793  0.36833070  0.26360420    -0.03100
C808        C  0.50581693  0.39762130  0.26761539    -0.07600
C809        C  0.99151198  0.41564945  0.24381351     0.06000
C810        C  0.97816416  0.40388745  0.21562346    -0.02600
Br811      Br  0.96106869  0.42698641  0.18133646    -0.02300
H812        H  0.96970117  0.36603058  0.18952560     0.09900
H813        H  0.51597144  0.40643951  0.28944710     0.07900
Br814      Br  0.52328689  0.34530726  0.29800770    -0.02700
C815        C  0.97812975  0.39856339  0.48722550    -0.09300
C816        C  0.50054361  0.41511827  0.00933543     0.06900
C817        C  0.52625485  0.40200040  0.03252057    -0.03100
C818        C  0.52788045  0.37257539  0.03436368    -0.07600
C819        C  0.50419490  0.35570163  0.01335029     0.06000
C820        C  0.98018921  0.36915374  0.48869583    -0.02600
Br821      Br  0.95096272  0.34838558  0.45655551    -0.02300
H822        H  0.95909731  0.40846644  0.46892743     0.09900
H823        H  0.54700434  0.36281487  0.05270104     0.07900
Br824      Br  0.55710123  0.42329131  0.06351639    -0.02700
C825        C  0.52060306  0.63023461  0.23904027    -0.09300
C826        C  0.00403048  0.64338192  0.26529429     0.06900
C827        C  0.98521206  0.62651877  0.28872293    -0.02700
C828        C  0.98210004  0.59729003  0.28501840    -0.07600
C829        C  0.99834987  0.58437497  0.25843088     0.06000
C830        C  0.51786639  0.60099062  0.23550228    -0.02600
Br831      Br  0.53903121  0.58492921  0.19796014    -0.02300
H832        H  0.53500842  0.64293252  0.22081816     0.09900
H833        H  0.96793983  0.58452115  0.30327559     0.07900
Br834      Br  0.96585861  0.64227942  0.32688041    -0.02700
C835        C  0.96916666  0.59642575  0.97111209    -0.09300
C836        C  0.48780315  0.58387294  0.99718394     0.06900
C837        C  0.50664259  0.60120499  0.52001133    -0.03100
C838        C  0.50699662  0.63046783  0.51609233    -0.07600
C839        C  0.48843779  0.64291910  0.98966441     0.06000
C840        C  0.96946801  0.62568859  0.96725475    -0.02600
Br841      Br  0.94660913  0.64062368  0.92937530    -0.02300
H842        H  0.95556075  0.58325342  0.95307415     0.09900
H843        H  0.52134976  0.64359464  0.53389925     0.07900
Br844      Br  0.52997672  0.58583504  0.55757477    -0.02700
C845        C  0.66330676  0.74714683  0.29087402    -0.09300
C846        C  0.67299779  0.76499374  0.26596331     0.06900
C847        C  0.64176817  0.76693416  0.24160899    -0.03100
C848        C  0.60144089  0.75157538  0.24277067    -0.07600
C849        C  0.59170222  0.73384159  0.26773188     0.06000
C850        C  0.62302766  0.73171478  0.29196327    -0.02600
Br851      Br  0.61124625  0.70923970  0.32774265    -0.02300
H852        H  0.68693365  0.74552122  0.30977222     0.09900
H853        H  0.57773343  0.75321720  0.22391986     0.07900
Br854      Br  0.65364343  0.78891656  0.20545749    -0.02700
C855        C  0.87289176  0.77089664  0.29002325    -0.09300
C856        C  0.84129729  0.76541357  0.26674817     0.06900
C857        C  0.85110601  0.74473466  0.24467606    -0.03100
C858        C  0.89166723  0.72998215  0.24627342    -0.07600
C859        C  0.92325037  0.73537558  0.26955780     0.06000
C860        C  0.91341626  0.75598071  0.29172959    -0.02600
Br861      Br  0.95254868  0.76330328  0.32593785    -0.02300
H862        H  0.86554965  0.78644940  0.30734971     0.09900
H863        H  0.89891970  0.71445104  0.22890215     0.07900
Br864      Br  0.81153875  0.73670978  0.21088251    -0.02700
C865        C  0.64289265  0.74915077  0.01212546    -0.09300
C866        C  0.65605843  0.76464659  0.98616140     0.06900
C867        C  0.62790102  0.76485061  0.46010496    -0.03100
C868        C  0.58728811  0.74974300  0.46033634    -0.07600
C869        C  0.57419901  0.73411075  0.98621968     0.06000
C870        C  0.60219405  0.73408905  0.01239282    -0.02600
Br871      Br  0.58508519  0.71508991  0.04951777    -0.02300
H872        H  0.66414290  0.74903721  0.03236650     0.09900
H873        H  0.56605669  0.74990616  0.44008430     0.07900
Br874      Br  0.64445918  0.78444026  0.42326504    -0.02700
C875        C  0.83471481  0.74775801  0.45963453    -0.09300
C876        C  0.82420990  0.76396458  0.98543159     0.06900
C877        C  0.85495004  0.76516218  0.01008787    -0.03100
C878        C  0.89558812  0.75054901  0.00850117    -0.07600
C879        C  0.90616656  0.73438003  0.98273028     0.06000
C880        C  0.87540923  0.73307853  0.45808944    -0.02600
Br881      Br  0.88842175  0.71266336  0.42138252    -0.02300
H882        H  0.81145942  0.74685285  0.44046669     0.09900
H883        H  0.91876973  0.75140102  0.02771861     0.07900
Br884      Br  0.84195295  0.78516828  0.04710365    -0.02700
C885        C  0.84403395  0.25437213  0.18811059    -0.09300
C886        C  0.83860756  0.23249452  0.20982335     0.06900
C887        C  0.87461665  0.22712314  0.23044614    -0.03100
C888        C  0.91403526  0.24320681  0.22897998    -0.07600
C889        C  0.91876312  0.26547755  0.20806818     0.06000
C890        C  0.88334248  0.27101017  0.18739211    -0.02600
Br891      Br  0.88720134  0.30089570  0.15782335    -0.02300
H892        H  0.81728156  0.25893873  0.17194055     0.09900
H893        H  0.94053778  0.23920439  0.24554471     0.07900
Br894      Br  0.87135097  0.20067394  0.26389441    -0.02700
C895        C  0.62849517  0.22361692  0.22424273    -0.09300
C896        C  0.66995071  0.23815286  0.22548131     0.06900
C897        C  0.66790882  0.26792969  0.22790291    -0.03100
C898        C  0.62655196  0.28187198  0.22465353    -0.07600
C899        C  0.58510873  0.26720302  0.22377575     0.06000
C900        C  0.58715739  0.23741506  0.22617752    -0.02600
Br901      Br  0.53731933  0.21345692  0.23747113    -0.02300
H902        H  0.62740198  0.20089365  0.22287590     0.09900
H903        H  0.62747537  0.30459736  0.22391121     0.07900
Br904      Br  0.71763164  0.29137443  0.24043748    -0.02700
C905        C  0.87026115  0.23131864  0.49577870    -0.09300
C906        C  0.84056872  0.23416380  0.52054347     0.06900
C907        C  0.85274059  0.25182828  0.04515321    -0.03100
C908        C  0.89355839  0.26665138  0.04436582    -0.07600
C909        C  0.92304330  0.26389595  0.01954344     0.06000
C910        C  0.91119052  0.24603501  0.49509211    -0.02600
Br911      Br  0.94875959  0.24211295  0.45966354    -0.02300
H912        H  0.86122562  0.21792468  0.47667076     0.09900
H913        H  0.90266553  0.28010113  0.06341746     0.07900
Br914      Br  0.81623640  0.25524020  0.08117689    -0.02700
C915        C  0.64280087  0.23182621  0.04604480    -0.09300
C916        C  0.67234364  0.23472522  0.52117682     0.06900
C917        C  0.66092043  0.25305778  0.49689987    -0.03100
C918        C  0.62079619  0.26831342  0.49792012    -0.07600
C919        C  0.59111343  0.26542452  0.02272677     0.06000
C920        C  0.60250584  0.24701448  0.04703312    -0.02600
Br921      Br  0.56527434  0.24276977  0.08267817    -0.02300
H922        H  0.65140391  0.21795079  0.06493033     0.09900
H923        H  0.61213551  0.28197369  0.47885868     0.07900
Br924      Br  0.69764727  0.25666264  0.46095892    -0.02700
C925        C  0.78475533  0.13238078  0.25208814    -0.09300
C926        C  0.75000214  0.14494094  0.23495468     0.06900
C927        C  0.71504692  0.12752178  0.22354373    -0.03100
C928        C  0.71576311  0.09846443  0.22910823    -0.07600
C929        C  0.75114368  0.08583702  0.24550764     0.06000
C930        C  0.78566072  0.10327062  0.25741400    -0.02600
Br931      Br  0.83398110  0.08904424  0.28229183    -0.02300
H932        H  0.81143073  0.14533588  0.26155368     0.09900
H933        H  0.68913864  0.08550367  0.21954521     0.07900
Br934      Br  0.66719646  0.14145444  0.19801394    -0.02700
C935        C  0.77938704  0.90094073  0.23648060    -0.09300
C936        C  0.75409928  0.91628597  0.25768441     0.06900
C937        C  0.73012257  0.90165095  0.28066358    -0.03100
C938        C  0.73181208  0.87221442  0.28209459    -0.07600
C939        C  0.75692545  0.85677124  0.26078566     0.06000
C940        C  0.78044534  0.87147588  0.23755093    -0.02600
Br941      Br  0.81156013  0.85247496  0.20524279    -0.02300
H942        H  0.79743758  0.91191518  0.21844532     0.09900
H943        H  0.71372327  0.86131097  0.30015793     0.07900
Br944      Br  0.69675872  0.92088914  0.31173555    -0.02700
C945        C  0.78957488  0.01063227  0.39412992    -0.09300
C946        C  0.75038054  0.00171783  0.40942549     0.06900
C947        C  0.71266290  0.99343750  0.39169724    -0.03100
C948        C  0.71471194  0.99457171  0.35968250    -0.07600
C949        C  0.75389339  0.00343195  0.34436741     0.06000
C950        C  0.79171047  0.01156971  0.36205744    -0.02600
Br951      Br  0.84682312  0.02524555  0.34437117    -0.02300
H952        H  0.81882350  0.01721654  0.40721007     0.09900
H953        H  0.68552910  0.98780046  0.34664302     0.07900
Br954      Br  0.65805644  0.97862800  0.40912403    -0.02700
C955        C  0.71629308  0.98480461  0.11038947    -0.09300
C956        C  0.75130171  0.99831798  0.09443561     0.06900
C957        C  0.78563948  0.01193014  0.11134694    -0.03100
C958        C  0.78492015  0.01123077  0.14340777    -0.07600
C959        C  0.75004394  0.99763546  0.15943374     0.06000
C960        C  0.71536629  0.98429607  0.14251185    -0.02600
Br961      Br  0.66698192  0.96378388  0.16152476    -0.02300
H962        H  0.68974307  0.97418799  0.09778903     0.09900
H963        H  0.81134220  0.02207043  0.15590783     0.07900
Br964      Br  0.83254479  0.03380421  0.09234611    -0.02700
C965        C  0.78184905  0.09633715  0.02871273    -0.09300
C966        C  0.75327209  0.08398409  0.50688483     0.06900
C967        C  0.72536545  0.10137426  0.48886318    -0.03100
C968        C  0.72657755  0.13059165  0.49282340    -0.07600
C969        C  0.75492450  0.14306858  0.51485754     0.06000
C970        C  0.78241942  0.12548568  0.03317079    -0.02600
Br971      Br  0.81873520  0.13956343  0.06630626    -0.02300
H972        H  0.80282502  0.08313749  0.04310763     0.09900
H973        H  0.70562340  0.14368214  0.47829993     0.07900
Br974      Br  0.68691473  0.08646989  0.45735290    -0.02700
C975        C  0.71913581  0.90258806  0.47529800    -0.09300
C976        C  0.74734894  0.91489305  0.49739287     0.06900
C977        C  0.77386592  0.89737989  0.01625353    -0.03100
C978        C  0.77116295  0.86810135  0.01311721    -0.07600
C979        C  0.74291703  0.85567757  0.49095683     0.06000
C980        C  0.71733796  0.87336817  0.47154889    -0.02600
Br981      Br  0.68247477  0.85928524  0.43777910    -0.02300
H982        H  0.69939754  0.91586871  0.46017476     0.09900
H983        H  0.79100768  0.85494037  0.02828437     0.07900
Br984      Br  0.81247884  0.91226016  0.04768106    -0.02700
O985        O  0.78731570  0.99804164  0.54551218    -0.72000
O986        O  0.78689621  0.00032606  0.95843699    -0.72200
O987        O  0.78839129  0.03910790  0.50346248    -0.72000
O988        O  0.78581871  0.95909569  0.00093168    -0.72000
O989        O  0.71269138  0.95987003  0.50000616    -0.72000
O990        O  0.71528447  0.03971275  0.00363715    -0.72000
O991        O  0.71396542  0.00149047  0.95848050    -0.72000
O992        O  0.71426434  0.99810179  0.54560636    -0.72200
V993        V  0.78567914  0.99913825  0.50203908     1.35200
V994        V  0.71548425  0.99976123  0.00197447     1.35200
C995        C  0.75095763  0.99814497  0.56045812     0.77300
C996        C  0.75029954  0.00109984  0.94350590     0.77300
C997        C  0.75225014  0.05300791  0.00424233     0.77200
C998        C  0.74878452  0.94587074  0.99980706     0.77200
O999        O  0.78756269  0.00058061  0.70789060    -0.72000
O1000       O  0.78997524  0.00189083  0.79508309    -0.72200
O1001       O  0.78947143  0.96121053  0.75238031    -0.72000
O1002       O  0.78832561  0.04126600  0.75046794    -0.72000
O1003       O  0.71537350  0.04055815  0.74850796    -0.72000
O1004       O  0.71657492  0.96068423  0.75611113    -0.72000
O1005       O  0.71708024  0.00363885  0.79560499    -0.72000
O1006       O  0.71470972  0.99745952  0.70883058    -0.72200
V1007       V  0.78745405  0.00123016  0.75148107     1.35200
V1008       V  0.71732202  0.00061407  0.75223366     1.35200
C1009       C  0.75068564  0.99835097  0.69345220     0.77300
C1010       C  0.75387755  0.00323709  0.81028670     0.77300
C1011       C  0.75328288  0.94733515  0.75535447     0.77200
C1012       C  0.75170644  0.05463063  0.74862598     0.77200
C1013       C  0.75544978  0.17426095  0.01786544     0.02900
C1014       C  0.71482857  0.18929783  0.01975967    -0.13200
C1015       C  0.71510055  0.21881971  0.02100995     0.00400
C1016       C  0.75634792  0.23330479  0.02159084    -0.11700
C1017       C  0.79713231  0.21865992  0.02012171     0.02900
C1018       C  0.79639330  0.18926450  0.01731539    -0.11100
H1019       H  0.68295839  0.17809150  0.01970547     0.08500
H1020       H  0.75666753  0.25607239  0.02279843     0.06100
H1021       H  0.82783087  0.17808105  0.01478572     0.05900
C1022       C  0.75177158  0.17586614  0.72861030     0.02900
C1023       C  0.71416439  0.19295720  0.73390062    -0.13200
C1024       C  0.71338627  0.22151539  0.72452166     0.00400
C1025       C  0.75383171  0.23316996  0.71301933    -0.11700
C1026       C  0.79415251  0.21771588  0.71303358     0.02900
C1027       C  0.79177501  0.18856800  0.71828991    -0.11100
H1028       H  0.68533252  0.18347711  0.74511289     0.08500
H1029       H  0.75459805  0.25436256  0.70430273     0.06100
H1030       H  0.82150110  0.17584662  0.71507385     0.05900
C1031       C  0.74150591  0.82443198  0.98841686     0.02900
C1032       C  0.78186942  0.80918789  0.98725194    -0.13200
C1033       C  0.78138093  0.77969295  0.98608914     0.00400
C1034       C  0.74006111  0.76527772  0.98546163    -0.11700
C1035       C  0.69943079  0.78012491  0.98655938     0.02900
C1036       C  0.70030709  0.80962687  0.98846503    -0.11100
H1037       H  0.81384943  0.82028143  0.98720399     0.08500
H1038       H  0.73951666  0.74250747  0.98434068     0.06100
H1039       H  0.66890492  0.82096331  0.99032394     0.05900
C1040       C  0.75720560  0.82549969  0.76297943     0.02900
C1041       C  0.79801652  0.81063986  0.76464328    -0.13200
C1042       C  0.79814409  0.78108920  0.76618920     0.00400
C1043       C  0.75699077  0.76646647  0.76730166    -0.11700
C1044       C  0.71602005  0.78091705  0.76566435     0.02900
C1045       C  0.71635656  0.81043075  0.76384328    -0.11100
H1046       H  0.82970220  0.82204126  0.76444491     0.08500
H1047       H  0.75684359  0.74371621  0.76904494     0.06100
H1048       H  0.68473778  0.82167146  0.76285818     0.05900
C1049       C  0.98895028  0.67416272  0.48713316     0.02900
C1050       C  0.94850640  0.68916834  0.48457127    -0.13200
C1051       C  0.94891818  0.71863676  0.48266214     0.00400
C1052       C  0.99014593  0.73317572  0.48324745    -0.11700
C1053       C  0.53096353  0.71840597  0.48555339     0.02900
C1054       C  0.53023449  0.68887671  0.48742062    -0.11100
H1055       H  0.91663287  0.67796068  0.48489521     0.08500
H1056       H  0.99052042  0.75595642  0.48207367     0.06100
H1057       H  0.56161109  0.67747025  0.48940423     0.05900
C1058       C  0.00550256  0.67449912  0.76760496     0.02900
C1059       C  0.96528865  0.68984808  0.76893789    -0.13200
C1060       C  0.96603074  0.71939344  0.76985453     0.00400
C1061       C  0.00761987  0.73356144  0.76909318    -0.11700
C1062       C  0.54818984  0.71839782  0.76836295     0.02900
C1063       C  0.54694181  0.68884839  0.76739059    -0.11100
H1064       H  0.93330346  0.67875851  0.76888595     0.08500
H1065       H  0.00852477  0.75635276  0.76897638     0.06100
H1066       H  0.57809756  0.67715558  0.76618999     0.05900
C1067       C  0.50541280  0.32454766  0.51678274     0.02900
C1068       C  0.54671385  0.31021835  0.51879894    -0.13200
C1069       C  0.54769907  0.28072556  0.52186393     0.00400
C1070       C  0.50701170  0.26558510  0.52215297    -0.11700
C1071       C  0.96586493  0.27988793  0.51953199     0.02900
C1072       C  0.96544279  0.30931363  0.51749326    -0.11100
H1073       H  0.57805104  0.32195780  0.51774031     0.08500
H1074       H  0.50745955  0.24281652  0.52350491     0.06100
H1075       H  0.93349891  0.32020281  0.51667188     0.05900
C1076       C  0.49606349  0.32583740  0.72908696     0.02900
C1077       C  0.53730565  0.31140895  0.73110300    -0.13200
C1078       C  0.54115179  0.28312258  0.72136026     0.00400
C1079       C  0.50234619  0.27031961  0.70880136    -0.11700
C1080       C  0.96004078  0.28320265  0.71051919     0.02900
C1081       C  0.95732541  0.31131149  0.71979272    -0.11100
H1082       H  0.56604741  0.32267974  0.74014192     0.08500
H1083       H  0.50416761  0.24990217  0.69822876     0.06100
H1084       H  0.92489263  0.32160481  0.72059971     0.05900
O1085       O  0.53180798  0.49882797  0.95995237    -0.72000
O1086       O  0.52865114  0.50281513  0.54674245    -0.72200
O1087       O  0.53348220  0.46093474  0.00623109    -0.72000
O1088       O  0.52725647  0.54064799  0.50112653    -0.72000
O1089       O  0.95436670  0.53830661  0.99955579    -0.72000
O1090       O  0.96103509  0.45840699  0.50390023    -0.72000
O1091       O  0.95618721  0.50005048  0.54538676    -0.72000
O1092       O  0.95927678  0.49679329  0.95843595    -0.72200
V1093       V  0.52885919  0.50074751  0.50341025     1.35200
V1094       V  0.95909303  0.49842376  0.50187911     1.35200
C1095       C  0.99619565  0.49778283  0.94409239     0.77300
C1096       C  0.99212256  0.50209707  0.56085413     0.77300
C1097       C  0.49806602  0.44607207  0.50655316     0.77200
C1098       C  0.48974292  0.55298514  0.49953360     0.77200
O1099       O  0.95687687  0.49662684  0.79534288    -0.72000
O1100       O  0.95863548  0.50419816  0.70859076    -0.72200
O1101       O  0.95619398  0.46052752  0.74755578    -0.72000
O1102       O  0.95935655  0.54030752  0.75628887    -0.72000
O1103       O  0.53230660  0.53929493  0.75381923    -0.72000
O1104       O  0.52909650  0.45931391  0.75189178    -0.72000
O1105       O  0.53121128  0.50037108  0.70946598    -0.72000
O1106       O  0.52968887  0.49831157  0.79642164    -0.72200
V1107       V  0.95909872  0.50039528  0.75199046     1.35200
V1108       V  0.52918452  0.49934652  0.75291323     1.35200
C1109       C  0.49291736  0.49677123  0.81092461     0.77300
C1110       C  0.49521058  0.50264266  0.69417260     0.77300
C1111       C  0.99221054  0.44643110  0.74821321     0.77200
C1112       C  0.99652195  0.55343611  0.75588271     0.77200
C1113       C  0.53367704  0.50045160  0.86065919    -0.09300
C1114       C  0.49275409  0.49604614  0.84504733     0.06900
C1115       C  0.95411390  0.49011537  0.86238685    -0.03100
C1116       C  0.95643100  0.49055573  0.89442594    -0.07600
C1117       C  0.99662844  0.49722040  0.90998252     0.06000
C1118       C  0.53595708  0.50094892  0.89268886    -0.02600
Br1119     Br  0.59422540  0.50859857  0.91016798    -0.02300
H1120       H  0.56439908  0.50400829  0.84787086     0.09900
H1121       H  0.92625123  0.48556279  0.90726680     0.07900
Br1122     Br  0.89673688  0.48031709  0.84480427    -0.02700
C1123       C  0.95593156  0.51065587  0.64416510    -0.09300
C1124       C  0.49540426  0.50315406  0.66009130     0.06900
C1125       C  0.53364742  0.49579712  0.64267208    -0.03100
C1126       C  0.53132823  0.49599850  0.61069185    -0.07600
C1127       C  0.99187834  0.50298859  0.59485114     0.06000
C1128       C  0.95372234  0.51067931  0.61209065    -0.02600
Br1129     Br  0.89800655  0.52250993  0.59375158    -0.02300
H1130       H  0.92627997  0.51669875  0.65687557     0.09900
H1131       H  0.56096464  0.48998855  0.59793376     0.07900
Br1132     Br  0.58993289  0.48394357  0.66022987    -0.02700
C1133       C  0.97927559  0.37467751  0.71161283    -0.09300
C1134       C  0.99380733  0.35667320  0.73525823     0.06900
C1135       C  0.50665857  0.36832870  0.76367583    -0.03100
C1136       C  0.50589027  0.39762235  0.76766964    -0.07600
C1137       C  0.99154252  0.41563912  0.74385103     0.06000
C1138       C  0.97816423  0.40386658  0.71567323    -0.02600
Br1139     Br  0.96102755  0.42695167  0.68138491    -0.02300
H1140       H  0.96967642  0.36600161  0.68959467     0.09900
H1141       H  0.51605320  0.40645023  0.78949468     0.07900
Br1142     Br  0.52335319  0.34531924  0.79808924    -0.02700
C1143       C  0.97812330  0.39855845  0.98725932    -0.09300
C1144       C  0.50053876  0.41512276  0.50932340     0.06900
C1145       C  0.52624413  0.40200515  0.53251168    -0.03100
C1146       C  0.52787312  0.37258017  0.53435333    -0.07600
C1147       C  0.50419564  0.35570635  0.51333579     0.06000
C1148       C  0.98017184  0.36914872  0.98873226    -0.02600
Br1149     Br  0.95092495  0.34838366  0.95659784    -0.02300
H1150       H  0.95908980  0.40846261  0.96896227     0.09900
H1151       H  0.54699309  0.36281974  0.55269246     0.07900
Br1152     Br  0.55707680  0.42329643  0.56351349    -0.02700
C1153       C  0.52055227  0.63024414  0.73904919    -0.09300
C1154       C  0.00396623  0.64337855  0.76529934     0.06900
C1155       C  0.98512656  0.62650806  0.78871420    -0.02700
C1156       C  0.98202961  0.59727953  0.78500151    -0.07600
C1157       C  0.99831110  0.58437116  0.75841896     0.06000
C1158       C  0.51782708  0.60100064  0.73549969    -0.02600
Br1159     Br  0.53900889  0.58495430  0.69795451    -0.02300
H1160       H  0.53496593  0.64294915  0.72083587     0.09900
H1161       H  0.96785609  0.58450524  0.80324970     0.07900
Br1162     Br  0.96572217  0.64225689  0.82686553    -0.02700
C1163       C  0.96918297  0.59643458  0.47111041    -0.09300
C1164       C  0.48778631  0.58387855  0.49719700     0.06900
C1165       C  0.50669730  0.60119980  0.01998353    -0.03100
C1166       C  0.50704783  0.63046210  0.01606285    -0.07600
C1167       C  0.48842457  0.64292519  0.48968163     0.06000
C1168       C  0.96949473  0.62569762  0.46725547    -0.02600
Br1169     Br  0.94671995  0.64063841  0.42935521    -0.02300
H1170       H  0.95561756  0.58326366  0.45305718     0.09900
H1171       H  0.52142909  0.64358893  0.03385938     0.07900
Br1172     Br  0.53008958  0.58583191  0.05753128    -0.02700
C1173       C  0.66325067  0.74714780  0.79089840    -0.09300
C1174       C  0.67294503  0.76498193  0.76597745     0.06900
C1175       C  0.64171805  0.76691107  0.74162060    -0.03100
C1176       C  0.60138869  0.75155511  0.74279018    -0.07600
C1177       C  0.59164564  0.73383537  0.76776223     0.06000
C1178       C  0.62296915  0.73171851  0.79199551    -0.02600
Br1179     Br  0.61118085  0.70926055  0.82778633    -0.02300
H1180       H  0.68687585  0.74553089  0.80979844     0.09900
H1181       H  0.57768265  0.75318855  0.72393787     0.07900
Br1182     Br  0.65359913  0.78887514  0.70545684    -0.02700
C1183       C  0.87283338  0.77089891  0.79004011    -0.09300
C1184       C  0.84124466  0.76541511  0.76676155     0.06900
C1185       C  0.85106038  0.74473796  0.74468954    -0.03100
C1186       C  0.89162005  0.72998478  0.74629219    -0.07600
C1187       C  0.92319632  0.73537672  0.76958121     0.06000
C1188       C  0.91335824  0.75598327  0.79175092    -0.02600
Br1189     Br  0.95248602  0.76330961  0.82596072    -0.02300
H1190       H  0.86548652  0.78645196  0.80736538     0.09900
H1191       H  0.89887698  0.71445432  0.72892116     0.07900
Br1192     Br  0.81150430  0.73671734  0.71088900    -0.02700
C1193       C  0.64288211  0.74915769  0.51213136    -0.09300
C1194       C  0.65603861  0.76465745  0.48616783     0.06900
C1195       C  0.62793119  0.76483513  0.96009328    -0.03100
C1196       C  0.58731758  0.74972829  0.96032072    -0.07600
C1197       C  0.57417930  0.73412058  0.48623431     0.06000
C1198       C  0.60218348  0.73409590  0.51240308    -0.02600
Br1199     Br  0.58508689  0.71509412  0.54952902    -0.02300
H1200       H  0.66413944  0.74904133  0.53236882     0.09900
H1201       H  0.56609305  0.74988846  0.94006516     0.07900
Br1202     Br  0.64450467  0.78441780  0.92325216    -0.02700
C1203       C  0.83473342  0.74775148  0.95963383    -0.09300
C1204       C  0.82419004  0.76397188  0.48543174     0.06900
C1205       C  0.85492618  0.76516664  0.51009033    -0.03100
C1206       C  0.89556362  0.75055296  0.50850527    -0.07600
C1207       C  0.90614450  0.73438426  0.48273475     0.06000
C1208       C  0.87542948  0.73307452  0.95808611    -0.02600
Br1209     Br  0.88844341  0.71266534  0.92137562    -0.02300
H1210       H  0.81147640  0.74684588  0.94046692     0.09900
H1211       H  0.91874255  0.75140373  0.52772434     0.07900
Br1212     Br  0.84192271  0.78516756  0.54710825    -0.02700
C1213       C  0.84409522  0.25434449  0.68810255    -0.09300
C1214       C  0.83863589  0.23248939  0.70983755     0.06900
C1215       C  0.87460762  0.22713966  0.73049648    -0.03100
C1216       C  0.91402825  0.24322193  0.72904252    -0.07600
C1217       C  0.91878934  0.26546958  0.70810549     0.06000
C1218       C  0.88340701  0.27097966  0.68739268    -0.02600
Br1219     Br  0.88733132  0.30082867  0.65778464    -0.02300
H1220       H  0.81736639  0.25889425  0.67190813     0.09900
H1221       H  0.94050582  0.23923605  0.74563105     0.07900
Br1222     Br  0.87127575  0.20072255  0.76397169    -0.02700
C1223       C  0.62852836  0.22360595  0.72421287    -0.09300
C1224       C  0.66998084  0.23814358  0.72546589     0.06900
C1225       C  0.66793660  0.26791822  0.72791149    -0.03100
C1226       C  0.62657614  0.28186011  0.72468457    -0.07600
C1227       C  0.58513462  0.26718924  0.72380174     0.06000
C1228       C  0.58718858  0.23739880  0.72616689    -0.02600
Br1229     Br  0.53735797  0.21342262  0.73743246    -0.02300
H1230       H  0.62744132  0.20088434  0.72282205     0.09900
H1231       H  0.62749631  0.30458540  0.72396290     0.07900
Br1232     Br  0.71766613  0.29135808  0.74044388    -0.02700
C1233       C  0.87023499  0.23133767  0.99575793    -0.09300
C1234       C  0.84055609  0.23415602  0.02053390     0.06900
C1235       C  0.85274228  0.25186239  0.54514314    -0.03100
C1236       C  0.89356001  0.26668531  0.54434547    -0.07600
C1237       C  0.92305811  0.26390295  0.51953400     0.06000
C1238       C  0.91116310  0.24605586  0.99508033    -0.02600
Br1239     Br  0.94871447  0.24217621  0.95963717    -0.02300
H1240       H  0.86118963  0.21796390  0.97663533     0.09900
H1241       H  0.90265778  0.28015537  0.56338204     0.07900
Br1242     Br  0.81622708  0.25531030  0.58115734    -0.02700
C1243       C  0.64282099  0.23185367  0.54605861    -0.09300
C1244       C  0.67233219  0.23471582  0.02117001     0.06900
C1245       C  0.66091611  0.25306553  0.99690675    -0.03100
C1246       C  0.62079128  0.26831998  0.99793407    -0.07600
C1247       C  0.59112682  0.26543539  0.52271961     0.06000
C1248       C  0.60252653  0.24704292  0.54703978    -0.02600
Br1249     Br  0.56530295  0.24282411  0.58269197    -0.02300
H1250       H  0.65142991  0.21799128  0.56495450     0.09900
H1251       H  0.61213699  0.28199339  0.97888270     0.07900
Br1252     Br  0.69765191  0.25669633  0.96097280    -0.02700
C1253       C  0.78480033  0.13236837  0.75205712    -0.09300
C1254       C  0.75003027  0.14493259  0.73494277     0.06900
C1255       C  0.71505864  0.12751598  0.72354906    -0.03100
C1256       C  0.71577161  0.09845930  0.72911651    -0.07600
C1257       C  0.75116689  0.08582838  0.74549762     0.06000
C1258       C  0.78570622  0.10325809  0.75738093    -0.02600
Br1259     Br  0.83406599  0.08902708  0.78221985    -0.02300
H1260       H  0.81149095  0.14532003  0.76150842     0.09900
H1261       H  0.68913178  0.08550127  0.71956860     0.07900
Br1262     Br  0.66718837  0.14144732  0.69803528    -0.02700
C1263       C  0.77932016  0.90093027  0.73646699    -0.09300
C1264       C  0.75404507  0.91627766  0.75767601     0.06900
C1265       C  0.73006561  0.90164461  0.78065528    -0.03100
C1266       C  0.73174848  0.87220802  0.78208570    -0.07600
C1267       C  0.75685473  0.85676321  0.76077451     0.06000
C1268       C  0.78036838  0.87146531  0.73753536    -0.02600
Br1269     Br  0.81145942  0.85246001  0.70521967    -0.02300
H1270       H  0.79736884  0.91190324  0.71842976     0.09900
H1271       H  0.71366168  0.86130593  0.80015079     0.07900
Br1272     Br  0.69670591  0.92088508  0.81172755    -0.02700
C1273       C  0.78957994  0.01063165  0.89412638    -0.09300
C1274       C  0.75038957  0.00171313  0.90942435     0.06900
C1275       C  0.71267152  0.99343015  0.89169793    -0.03100
C1276       C  0.71471668  0.99456409  0.85968307    -0.07600
C1277       C  0.75389429  0.00342721  0.84436564     0.06000
C1278       C  0.79171109  0.01156957  0.86205343    -0.02600
Br1279     Br  0.84681525  0.02525393  0.84436256    -0.02300
H1280       H  0.81882839  0.01721887  0.90720493     0.09900
H1281       H  0.68553386  0.98779019  0.84664525     0.07900
Br1282     Br  0.65806922  0.97861738  0.90912725    -0.02700
C1283       C  0.71626117  0.98481613  0.61038662    -0.09300
C1284       C  0.75127318  0.99832844  0.59443511     0.06900
C1285       C  0.78561291  0.01193640  0.61134828    -0.03100
C1286       C  0.78489530  0.01123098  0.64340872    -0.07600
C1287       C  0.75001738  0.99763526  0.65943241     0.06000
C1288       C  0.71533453  0.98430321  0.64250887    -0.02600
Br1289     Br  0.66694248  0.96379628  0.66151921    -0.02300
H1290       H  0.68970855  0.97420374  0.59778449     0.09900
H1291       H  0.81131977  0.02206667  0.65591049     0.07900
Br1292     Br  0.83251771  0.03381350  0.59235097    -0.02700
C1293       C  0.78184069  0.09634194  0.52872178    -0.09300
C1294       C  0.75327405  0.08397431  0.00688309     0.06900
C1295       C  0.72535424  0.10135989  0.98886544    -0.03100
C1296       C  0.72656395  0.13057795  0.99281969    -0.07600
C1297       C  0.75491905  0.14306002  0.01484542     0.06000
C1298       C  0.78241575  0.12548991  0.53318415    -0.02600
Br1299     Br  0.81872663  0.13956119  0.56632524    -0.02300
H1300       H  0.80280840  0.08313878  0.54311848     0.09900
H1301       H  0.70560088  0.14366472  0.97829849     0.07900
Br1302     Br  0.68688500  0.08644851  0.95736938    -0.02700
C1303       C  0.71915159  0.90257878  0.97529866    -0.09300
C1304       C  0.74737585  0.91488353  0.99738733     0.06900
C1305       C  0.77383178  0.89738965  0.51626430    -0.03100
C1306       C  0.77113437  0.86811100  0.51312562    -0.07600
C1307       C  0.74293457  0.85566800  0.99095469     0.06000
C1308       C  0.71734924  0.87335885  0.97155082    -0.02600
Br1309     Br  0.68247086  0.85927672  0.93778762    -0.02300
H1310       H  0.69940750  0.91585951  0.96017942     0.09900
H1311       H  0.79097392  0.85494986  0.52829619     0.07900
Br1312     Br  0.81242564  0.91227078  0.54770214    -0.02700
loop_ 
_geom_bond_atom_site_label_1 
_geom_bond_atom_site_label_2 
_geom_bond_distance 
_geom_bond_site_symmetry_2 
_ccdc_geom_bond_type 
O1            V9   1.897       .  S
O1           C11   1.263       .  A
O2          V337   1.902   1_545  S
O2           C12   1.266       .  A
O3            V9   1.903   1_545  S
O3          C341   1.265       .  A
O4          V337   1.904       .  S
O4           C14   1.265       .  A
O5          V338   1.900       .  S
O5          C342   1.264   1_554  A
O6           V10   1.901   1_545  S
O6           C13   1.264       .  A
O7           V10   1.899   1_545  S
O7           C12   1.264       .  A
O8          V338   1.905       .  S
O8           C11   1.266       .  A
V9          O330   1.902   1_564  S
V9          O332   1.904       .  S
V9          V338   2.086       .  T
V10         O333   1.900       .  S
V10         O336   1.905       .  S
V10         V337   2.086       .  T
C11         C300   1.482       .  S
C12         C290   1.486       .  S
C13         O331   1.265       .  A
C13         C310   1.477       .  S
C14         O333   1.264       .  A
C14         C320   1.478       .  S
O15          V23   1.901       .  S
O15          C25   1.266   1_545  A
O16          V23   1.903       .  S
O16          C26   1.265       .  A
O17          V23   1.904   1_565  S
O17          C27   1.265       .  A
O18          V23   1.904       .  S
O18          C28   1.265       .  A
O19          V24   1.907       .  S
O19          C28   1.267       .  A
O20          V24   1.905   1_565  S
O20          C27   1.265       .  A
O21          V24   1.898       .  S
O21          C26   1.265       .  A
O22          V24   1.901   1_565  S
O22          C25   1.264       .  A
V23          V24   2.084       .  T
C25         C303   1.484       .  S
C26         C293   1.486       .  S
C27         C280   1.480       .  S
C28         C273   1.489       .  S
C29         C313   1.490       .  S
C29          C30   1.409       .  A
C29          C34   1.407       .  A
C30          C31   1.405       .  A
C30          H35   1.084       .  S
C31         C260   1.481       .  S
C31          C32   1.402       .  A
C32          C33   1.402       .  A
C32          H36   1.084       .  S
C33         C250   1.482       .  S
C33          C34   1.404       .  A
C34          H37   1.083       .  S
C38         C270   1.496       .  S
C38          C39   1.405       .  A
C38          C43   1.404       .  A
C39          C40   1.417       .  A
C39          H44   1.083       .  S
C40         C240   1.517       .  S
C40          C41   1.413       .  A
C41          C42   1.409       .  A
C41          H45   1.075       .  S
C42         C230   1.500       .  S
C42          C43   1.405       .  A
C43          H46   1.083       .  S
C47         C323   1.490       .  S
C47          C48   1.406       .  A
C47          C52   1.408       .  A
C48          C49   1.403       .  A
C48          H53   1.084       .  S
C49         C548   1.479       .  S
C49          C50   1.403       .  A
C50          C51   1.403       .  A
C50          H54   1.084       .  S
C51         C538   1.480       .  S
C51          C52   1.405       .  A
C52          H55   1.083       .  S
C56         C283   1.489       .  S
C56          C57   1.408       .  A
C56          C61   1.406       .  A
C57          C58   1.406       .  A
C57          H62   1.084       .  S
C58         C200   1.485       .  S
C58          C59   1.404       .  A
C59          C60   1.402       .  A
C59          H63   1.084       .  S
C60         C190   1.483       .  S
C60          C61   1.405       .  A
C61          H64   1.084       .  S
C65         C839   1.484       .  S
C65          C66   1.405       .  A
C65         C726   1.407       .  A
C66          C67   1.403       .  A
C66          H71   1.084       .  S
C67         C223   1.478       .  S
C67          C68   1.403       .  A
C68         C725   1.403       .  A
C68          H72   1.084       .  S
C69         C213   1.482       .  S
C69          C70   1.406       .  A
C69         C724   1.403   1_455  A
C70         C721   1.406   1_455  A
C70          H73   1.084       .  S
C74         C170   1.484       .  S
C74          C75   1.405       .  A
C74         C735   1.406       .  A
C75          C76   1.405       .  A
C75          H80   1.084       .  S
C76         C203   1.485       .  S
C76          C77   1.404       .  A
C77         C734   1.404       .  A
C77          H81   1.084       .  S
C78         C193   1.481       .  S
C78          C79   1.406       .  A
C78         C733   1.404       .  A
C79         C730   1.405       .  A
C79          H82   1.084       .  S
C83         C163   1.488       .  S
C83          C84   1.409       .  A
C83         C744   1.405   1_455  A
C84          C85   1.408       .  A
C84          H89   1.084       .  S
C85         C263   1.484       .  S
C85          C86   1.403       .  A
C86         C743   1.401   1_455  A
C86          H90   1.084       .  S
C87         C253   1.478       .  S
C87          C88   1.401       .  A
C87         C742   1.401       .  A
C88         C739   1.405       .  A
C88          H91   1.084       .  S
C92         C806   1.489       .  S
C92          C93   1.410   1_655  A
C92         C753   1.404       .  A
C93          C94   1.418       .  A
C93          H98   1.080       .  S
C94         C243   1.517       .  S
C94          C95   1.411       .  A
C95         C752   1.403   1_455  A
C95          H99   1.078       .  S
C96         C233   1.488       .  S
C96          C97   1.401       .  A
C96         C751   1.403       .  A
C97         C748   1.404       .  A
C97         H100   1.084       .  S
O101        V437   1.901       .  S
O101        C767   1.264   1_455  A
O102        V109   1.894       .  S
O102        C768   1.264   1_455  A
O103        V437   1.902       .  S
O103        C441   1.264   1_455  A
O104        V109   1.900       .  S
O104        C114   1.264   1_454  A
O105        V438   1.905       .  S
O105       C1098   1.265       .  A
O106        V110   1.906       .  S
O106        C769   1.265       .  A
O107        V110   1.902       .  S
O107        C112   1.264       .  A
O108        V438   1.897       .  S
O108        C111   1.265       .  A
V109        O429   1.901   1_554  S
V109        O431   1.902       .  S
V109        V766   2.086   1_455  T
V110        O433   1.905   1_554  S
V110        O436   1.897   1_554  S
V110        V765   2.086       .  T
C111        O757   1.264       .  A
C111        C133   1.489       .  S
C112        O758   1.264       .  A
C112        C143   1.484       .  S
C113        O431   1.264   1_655  A
C113        O762   1.265       .  A
C113        C160   1.478   1_655  S
C114       O1089   1.264       .  A
C114        C180   1.473       .  S
O115        V123   1.899       .  S
O115        C781   1.263       .  A
O116        V123   1.900       .  S
O116        C782   1.265       .  A
O117        V123   1.908       .  S
O117        C127   1.266       .  A
O118        V123   1.908       .  S
O118        C128   1.265       .  A
O119        V124   1.902       .  S
O119        C784   1.264   1_455  A
O120        V124   1.904       .  S
O120        C783   1.264   1_455  A
O121        V124   1.896       .  S
O121        C126   1.263   1_455  A
O122        V124   1.897       .  S
O122        C125   1.265   1_455  A
V123        V780   2.083       .  T
V124        V779   2.084   1_455  T
C125        O771   1.264       .  A
C125        C130   1.488       .  S
C126        O772   1.266       .  A
C126        C140   1.487       .  S
C127        O776   1.264       .  A
C127        C153   1.477       .  S
C128        O775   1.264       .  A
C128        C173   1.476       .  S
C129        C130   1.406   1_455  A
C129        C134   1.399       .  A
C129        H136   1.083       .  S
C130        C787   1.415       .  A
C131        C132   1.399       .  A
C131        C786   1.415       .  A
C131       Br138   1.923       .  S
C132        C133   1.407       .  A
C132        H137   1.083       .  S
C133        C790   1.415       .  A
C134        C789   1.415   1_455  A
C134       Br135   1.922       .  S
C139        C144   1.400       .  A
C139        C796   1.407       .  A
C139        H146   1.083       .  S
C140        C141   1.416   1_655  A
C140        C795   1.407       .  A
C141        C142   1.396       .  A
C141       Br148   1.923       .  S
C142        C799   1.404   1_455  A
C142        H147   1.083       .  S
C143        C144   1.413       .  A
C143        C798   1.404       .  A
C144       Br145   1.921       .  S
C149        C150   1.405       .  A
C149        C154   1.401       .  A
C149        H156   1.084       .  S
C150        C748   1.489       .  S
C150        C807   1.412       .  A
C151        C152   1.405       .  A
C151        C806   1.412   1_455  A
C151       Br158   1.918       .  S
C152        C809   1.404   1_455  A
C152        H157   1.083       .  S
C153        C154   1.408       .  A
C153        C808   1.404       .  A
C154       Br155   1.920       .  S
C159        C164   1.401       .  A
C159       C1144   1.402       .  A
C159        H166   1.084       .  S
C160        C161   1.410       .  A
C160       C1143   1.402   1_454  A
C161        C162   1.402       .  A
C161       Br168   1.920       .  S
C162        C163   1.405       .  A
C162        H167   1.083       .  S
C163       C1148   1.414   1_454  A
C164       C1147   1.414       .  A
C164       Br165   1.921       .  S
C169        C174   1.402       .  A
C169        C826   1.405       .  A
C169        H176   1.083       .  S
C170        C171   1.411       .  A
C170        C825   1.404       .  A
C171        C172   1.402       .  A
C171       Br178   1.920       .  S
C172        C173   1.403       .  A
C172        H177   1.084       .  S
C173        C830   1.408       .  A
C174        C829   1.408   1_455  A
C174       Br175   1.919       .  S
C179        C184   1.401       .  A
C179        C836   1.402       .  A
C179        H186   1.084       .  S
C180        C835   1.401       .  A
C180        C509   1.408   1_656  A
C181        C182   1.401       .  A
C181        C508   1.408   1_455  A
C181       Br188   1.919       .  S
C182        C511   1.405   1_455  A
C182        H187   1.084       .  S
C183        C721   1.484       .  S
C183        C510   1.405   1_656  A
C183        C840   1.412       .  A
C184        C839   1.412       .  A
C184       Br185   1.919       .  S
C189        C190   1.405       .  A
C189        C194   1.401       .  A
C189        H196   1.083       .  S
C190        C191   1.411       .  A
C191        C192   1.400       .  A
C191       Br198   1.920       .  S
C192        C193   1.404       .  A
C192        H197   1.083       .  S
C193        C194   1.409       .  A
C194       Br195   1.919       .  S
C199        C200   1.404       .  A
C199        C204   1.402       .  A
C199        H206   1.083       .  S
C200        C201   1.412       .  A
C201        C202   1.399       .  A
C201       Br208   1.920       .  S
C202        C203   1.404       .  A
C202        H207   1.084       .  S
C203        C204   1.412       .  A
C204       Br205   1.920       .  S
C209        C210   1.403   1_554  A
C209        C214   1.402       .  A
C209        H216   1.083       .  S
C210        C379   1.480       .  S
C210        C539   1.409       .  A
C211        C212   1.401       .  A
C211        C538   1.409       .  A
C211       Br218   1.917       .  S
C212        C541   1.404       .  A
C212        H217   1.084       .  S
C213        C214   1.410   1_556  A
C213        C540   1.404       .  A
C214       Br215   1.919       .  S
C219        C224   1.401       .  A
C219        C548   1.404       .  A
C219        H226   1.083       .  S
C220        C377   1.479       .  S
C220        C221   1.409   1_556  A
C220        C547   1.404       .  A
C221        C222   1.398       .  A
C221       Br228   1.919       .  S
C222        C223   1.402   1_554  A
C222        H227   1.084       .  S
C223        C552   1.409       .  A
C224        C551   1.409       .  A
C224       Br225   1.918       .  S
C229        C230   1.412       .  A
C229        C234   1.407       .  A
C229        H236   1.083       .  S
C230        C231   1.419       .  A
C231        C232   1.397       .  A
C231       Br238   1.924       .  S
C232        C233   1.401       .  A
C232        H237   1.084       .  S
C233        C234   1.408       .  A
C234       Br235   1.917       .  S
C239        C240   1.410       .  A
C239        C244   1.398       .  A
C239        H246   1.082       .  S
C240        C241   1.422       .  A
C241        C242   1.406       .  A
C241       Br248   1.925       .  S
C242        C243   1.412       .  A
C242        H247   1.081       .  S
C243        C244   1.421       .  A
C244       Br245   1.927       .  S
C249        C250   1.404       .  A
C249        C254   1.400       .  A
C249        H256   1.083       .  S
C250        C579   1.412       .  A
C251        C252   1.399       .  A
C251        C578   1.412       .  A
C251       Br258   1.920       .  S
C252        C253   1.402       .  A
C252        H257   1.084       .  S
C253        C582   1.409   1_554  A
C254        C581   1.409       .  A
C254       Br255   1.920       .  S
C259        C264   1.402       .  A
C259        C588   1.403       .  A
C259        H266   1.084       .  S
C260        C261   1.410       .  A
C260        C587   1.403       .  A
C261        C262   1.399       .  A
C261       Br268   1.919       .  S
C262        C591   1.403       .  A
C262        H267   1.084       .  S
C263        C264   1.413       .  A
C263        C590   1.403   1_554  A
C264       Br265   1.920       .  S
C269        C270   1.406       .  A
C269        C274   1.403       .  A
C269        H276   1.083       .  S
C270        C271   1.415       .  A
C271        C272   1.402       .  A
C271       Br278   1.921       .  S
C272        C273   1.405       .  A
C272        H277   1.084       .  S
C273        C274   1.414       .  A
C274       Br275   1.920       .  S
C279        C280   1.403       .  A
C279        C284   1.402       .  A
C279        H286   1.084       .  S
C280        C281   1.410       .  A
C281        C282   1.402       .  A
C281       Br288   1.920       .  S
C282        C283   1.406       .  A
C282        H287   1.083       .  S
C283        C284   1.413       .  A
C284       Br285   1.920       .  S
C289        C290   1.406       .  A
C289        C294   1.401       .  A
C289        H296   1.083       .  S
C290        C291   1.414   1_545  A
C291        C292   1.399       .  A
C291       Br298   1.922       .  S
C292        C293   1.405   1_565  A
C292        H297   1.083       .  S
C293        C294   1.414       .  A
C294       Br295   1.921       .  S
C299        C300   1.404       .  A
C299        C304   1.401       .  A
C299        H306   1.084       .  S
C300        C301   1.413   1_565  A
C301        C302   1.399       .  A
C301       Br308   1.922       .  S
C302        C303   1.404   1_545  A
C302        H307   1.084       .  S
C303        C304   1.414       .  A
C304       Br305   1.921       .  S
C309        C314   1.400       .  A
C309        C638   1.402       .  A
C309        H316   1.083       .  S
C310        C311   1.409       .  A
C310        C637   1.402       .  A
C311        C312   1.401       .  A
C311       Br318   1.920       .  S
C312        C313   1.407       .  A
C312        H317   1.083       .  S
C313        C642   1.414       .  A
C314        C641   1.414       .  A
C314       Br315   1.921       .  S
C319        C320   1.403       .  A
C319        C324   1.400       .  A
C319        H326   1.084       .  S
C320        C649   1.409       .  A
C321        C322   1.401       .  A
C321        C648   1.409   1_554  A
C321       Br328   1.920       .  S
C322        C651   1.408   1_554  A
C322        H327   1.083       .  S
C323        C324   1.413       .  A
C323        C650   1.408       .  A
C324       Br325   1.919       .  S
O329        V337   1.897       .  S
O329        C339   1.263       .  A
O330        C340   1.266       .  A
O331        V337   1.903   1_545  S
O332        C342   1.265   1_554  A
O334        V338   1.901   1_545  S
O334        C341   1.264       .  A
O335        V338   1.899   1_546  S
O335        C340   1.264       .  A
O336        C339   1.266       .  A
C339        C628   1.482       .  S
C340        C618   1.486       .  S
C341        C638   1.477       .  S
C342        C648   1.478       .  S
O343        V351   1.901       .  S
O343        C353   1.266   1_545  A
O344        V351   1.903       .  S
O344        C354   1.265       .  A
O345        V351   1.904   1_565  S
O345        C355   1.265       .  A
O346        V351   1.904       .  S
O346        C356   1.265       .  A
O347        V352   1.907       .  S
O347        C356   1.267       .  A
O348        V352   1.905   1_565  S
O348        C355   1.265       .  A
O349        V352   1.898       .  S
O349        C354   1.265       .  A
O350        V352   1.901   1_565  S
O350        C353   1.264       .  A
V351        V352   2.084       .  T
C353        C631   1.484       .  S
C354        C621   1.486       .  S
C355        C608   1.480       .  S
C356        C601   1.489       .  S
C357        C641   1.490       .  S
C357        C358   1.409       .  A
C357        C362   1.407       .  A
C358        C359   1.405       .  A
C358        H363   1.084       .  S
C359        C588   1.481       .  S
C359        C360   1.402       .  A
C360        C361   1.402       .  A
C360        H364   1.084       .  S
C361        C578   1.482       .  S
C361        C362   1.404       .  A
C362        H365   1.083       .  S
C366        C598   1.496       .  S
C366        C367   1.405       .  A
C366        C371   1.404       .  A
C367        C368   1.417       .  A
C367        H372   1.083       .  S
C368        C568   1.517       .  S
C368        C369   1.413       .  A
C369        C370   1.409       .  A
C369        H373   1.075       .  S
C370        C558   1.500       .  S
C370        C371   1.405       .  A
C371        H374   1.083       .  S
C375        C651   1.490       .  S
C375        C376   1.406       .  A
C375        C380   1.408       .  A
C376        C377   1.403       .  A
C376        H381   1.084       .  S
C377        C378   1.403       .  A
C378        C379   1.403       .  A
C378        H382   1.084       .  S
C379        C380   1.405       .  A
C380        H383   1.083       .  S
C384        C611   1.489       .  S
C384        C385   1.408       .  A
C384        C389   1.406       .  A
C385        C386   1.406       .  A
C385        H390   1.084       .  S
C386        C528   1.485       .  S
C386        C387   1.404       .  A
C387        C388   1.402       .  A
C387        H391   1.084       .  S
C388        C518   1.483       .  S
C388        C389   1.405       .  A
C389        H392   1.084       .  S
C393       C1167   1.484       .  S
C393        C394   1.405       .  A
C393       C1054   1.407       .  A
C394        C395   1.403       .  A
C394        H399   1.084       .  S
C395        C551   1.478       .  S
C395        C396   1.403       .  A
C396       C1053   1.403       .  A
C396        H400   1.084       .  S
C397        C541   1.482       .  S
C397       C1052   1.403   1_455  A
C397        C398   1.406       .  A
C398       C1049   1.406   1_455  A
C398        H401   1.084       .  S
C402        C498   1.484       .  S
C402        C403   1.405       .  A
C402       C1063   1.406       .  A
C403        C404   1.405       .  A
C403        H408   1.084       .  S
C404        C531   1.485       .  S
C404        C405   1.404       .  A
C405       C1062   1.404       .  A
C405        H409   1.084       .  S
C406        C521   1.481       .  S
C406       C1061   1.404       .  A
C406        C407   1.406       .  A
C407       C1058   1.405       .  A
C407        H410   1.084       .  S
C411        C491   1.488       .  S
C411        C412   1.409       .  A
C411       C1072   1.405   1_455  A
C412        C413   1.408       .  A
C412        H417   1.084       .  S
C413        C591   1.484       .  S
C413        C414   1.403       .  A
C414       C1071   1.401   1_455  A
C414        H418   1.084       .  S
C415        C581   1.478       .  S
C415       C1070   1.401       .  A
C415        C416   1.401       .  A
C416       C1067   1.405       .  A
C416        H419   1.084       .  S
C420       C1134   1.489       .  S
C420        C421   1.410   1_655  A
C420       C1081   1.404       .  A
C421        C422   1.418       .  A
C421        H426   1.080       .  S
C422        C571   1.517       .  S
C422        C423   1.411       .  A
C423       C1080   1.403   1_455  A
C423        H427   1.078       .  S
C424        C561   1.488       .  S
C424       C1079   1.403       .  A
C424        C425   1.401       .  A
C425       C1076   1.404       .  A
C425        H428   1.084       .  S
O429       C1095   1.264   1_455  A
O430        V437   1.894       .  S
O430       C1096   1.264   1_455  A
O432        V437   1.900       .  S
O432        C442   1.264   1_455  A
O433        C770   1.265       .  A
O434        V438   1.906       .  S
O434       C1097   1.265       .  A
O435        V438   1.902       .  S
O435        C440   1.264       .  A
O436        C439   1.265       .  A
V437       V1094   2.086   1_455  T
V438       V1093   2.086       .  T
C439       O1085   1.264       .  A
C439        C461   1.489       .  S
C440       O1086   1.264       .  A
C440        C471   1.484       .  S
C441       O1090   1.265       .  A
C441        C488   1.478   1_655  S
C442        O761   1.264       .  A
C442        C508   1.473       .  S
O443        V451   1.899       .  S
O443       C1109   1.263       .  A
O444        V451   1.900       .  S
O444       C1110   1.265       .  A
O445        V451   1.908       .  S
O445        C455   1.266       .  A
O446        V451   1.908       .  S
O446        C456   1.265       .  A
O447        V452   1.902       .  S
O447       C1112   1.264   1_455  A
O448        V452   1.904       .  S
O448       C1111   1.264   1_455  A
O449        V452   1.896       .  S
O449        C454   1.263   1_455  A
O450        V452   1.897       .  S
O450        C453   1.265   1_455  A
V451       V1108   2.083       .  T
V452       V1107   2.084   1_455  T
C453       O1099   1.264       .  A
C453        C458   1.488       .  S
C454       O1100   1.266       .  A
C454        C468   1.487       .  S
C455       O1104   1.264       .  A
C455        C481   1.477       .  S
C456       O1103   1.264       .  A
C456        C501   1.476       .  S
C457        C458   1.406   1_455  A
C457        C462   1.399       .  A
C457        H464   1.083       .  S
C458       C1115   1.415       .  A
C459       C1114   1.415       .  A
C459        C460   1.399       .  A
C459       Br466   1.923       .  S
C460        C461   1.407       .  A
C460        H465   1.083       .  S
C461       C1118   1.415       .  A
C462       C1117   1.415   1_455  A
C462       Br463   1.922       .  S
C467       C1124   1.407       .  A
C467        C472   1.400       .  A
C467        H474   1.083       .  S
C468       C1123   1.407       .  A
C468        C469   1.416   1_655  A
C469        C470   1.396       .  A
C469       Br476   1.923       .  S
C470       C1127   1.404   1_455  A
C470        H475   1.084       .  S
C471       C1126   1.404       .  A
C471        C472   1.413       .  A
C472       Br473   1.921       .  S
C477        C478   1.405       .  A
C477        C482   1.401       .  A
C477        H484   1.084       .  S
C478       C1076   1.489       .  S
C478       C1135   1.412       .  A
C479       C1134   1.412   1_455  A
C479        C480   1.405       .  A
C479       Br486   1.918       .  S
C480       C1137   1.404   1_455  A
C480        H485   1.083       .  S
C481       C1136   1.404       .  A
C481        C482   1.408       .  A
C482       Br483   1.920       .  S
C487        C816   1.402   1_556  A
C487        C492   1.401       .  A
C487        H494   1.084       .  S
C488        C815   1.402   1_455  A
C488        C489   1.410       .  A
C489        C490   1.402       .  A
C489       Br496   1.920       .  S
C490        C491   1.405       .  A
C490        H495   1.083       .  S
C491        C820   1.414   1_455  A
C492        C819   1.414   1_556  A
C492       Br493   1.921       .  S
C497       C1154   1.405       .  A
C497        C502   1.402       .  A
C497        H504   1.083       .  S
C498       C1153   1.404       .  A
C498        C499   1.411       .  A
C499        C500   1.402       .  A
C499       Br506   1.920       .  S
C500        C501   1.403       .  A
C500        H505   1.084       .  S
C501       C1158   1.408       .  A
C502       C1157   1.408   1_455  A
C502       Br503   1.919       .  S
C507       C1164   1.402       .  A
C507        C512   1.401       .  A
C507        H514   1.084       .  S
C508       C1163   1.401       .  A
C509        C510   1.401       .  A
C509       Br516   1.919       .  S
C510        H515   1.083       .  S
C511       C1049   1.484       .  S
C511       C1168   1.412       .  A
C512       C1167   1.412       .  A
C512       Br513   1.919       .  S
C517        C518   1.405       .  A
C517        C522   1.401       .  A
C517        H524   1.083       .  S
C518        C519   1.411       .  A
C519        C520   1.400       .  A
C519       Br526   1.920       .  S
C520        C521   1.404       .  A
C520        H525   1.083       .  S
C521        C522   1.409       .  A
C522       Br523   1.919       .  S
C527        C528   1.404       .  A
C527        C532   1.402       .  A
C527        H534   1.083       .  S
C528        C529   1.412       .  A
C529        C530   1.399       .  A
C529       Br536   1.920       .  S
C530        C531   1.404       .  A
C530        H535   1.084       .  S
C531        C532   1.412       .  A
C532       Br533   1.920       .  S
C537        C538   1.403       .  A
C537        C542   1.402       .  A
C537        H544   1.083       .  S
C539        C540   1.401       .  A
C539       Br546   1.917       .  S
C540        H545   1.084       .  S
C541        C542   1.410       .  A
C542       Br543   1.919       .  S
C547        C552   1.401       .  A
C547        H554   1.083       .  S
C548        C549   1.409       .  A
C549        C550   1.398       .  A
C549       Br556   1.919       .  S
C550        C551   1.402       .  A
C550        H555   1.084       .  S
C552       Br553   1.918       .  S
C557        C558   1.412       .  A
C557        C562   1.407       .  A
C557        H564   1.083       .  S
C558        C559   1.419       .  A
C559        C560   1.397       .  A
C559       Br566   1.924       .  S
C560        C561   1.401       .  A
C560        H565   1.084       .  S
C561        C562   1.408       .  A
C562       Br563   1.917       .  S
C567        C568   1.410       .  A
C567        C572   1.398       .  A
C567        H574   1.082       .  S
C568        C569   1.422       .  A
C569        C570   1.406       .  A
C569       Br576   1.925       .  S
C570        C571   1.412       .  A
C570        H575   1.081       .  S
C571        C572   1.421       .  A
C572       Br573   1.927       .  S
C577        C578   1.404   1_556  A
C577        C582   1.400       .  A
C577        H584   1.083       .  S
C579        C580   1.399       .  A
C579       Br586   1.920       .  S
C580        C581   1.402       .  A
C580        H585   1.084       .  S
C582       Br583   1.920       .  S
C587        C592   1.402       .  A
C587        H594   1.084       .  S
C588        C589   1.410   1_554  A
C589        C590   1.399       .  A
C589       Br596   1.919       .  S
C590        H595   1.084       .  S
C591        C592   1.413       .  A
C592       Br593   1.920       .  S
C597        C598   1.406       .  A
C597        C602   1.403       .  A
C597        H604   1.083       .  S
C598        C599   1.415       .  A
C599        C600   1.402       .  A
C599       Br606   1.921       .  S
C600        C601   1.405       .  A
C600        H605   1.084       .  S
C601        C602   1.414       .  A
C602       Br603   1.920       .  S
C607        C608   1.403       .  A
C607        C612   1.402       .  A
C607        H614   1.084       .  S
C608        C609   1.410       .  A
C609        C610   1.402       .  A
C609       Br616   1.920       .  S
C610        C611   1.406       .  A
C610        H615   1.083       .  S
C611        C612   1.413       .  A
C612       Br613   1.920       .  S
C617        C618   1.406       .  A
C617        C622   1.401       .  A
C617        H624   1.083       .  S
C618        C619   1.414   1_545  A
C619        C620   1.399       .  A
C619       Br626   1.922       .  S
C620        C621   1.405   1_565  A
C620        H625   1.083       .  S
C621        C622   1.414       .  A
C622       Br623   1.921       .  S
C627        C628   1.404       .  A
C627        C632   1.401       .  A
C627        H634   1.084       .  S
C628        C629   1.413   1_565  A
C629        C630   1.399       .  A
C629       Br636   1.922       .  S
C630        C631   1.404   1_545  A
C630        H635   1.084       .  S
C631        C632   1.414       .  A
C632       Br633   1.921       .  S
C637        C642   1.400       .  A
C637        H644   1.083       .  S
C638        C639   1.409   1_554  A
C639        C640   1.401       .  A
C639       Br646   1.920       .  S
C640        C641   1.407   1_556  A
C640        H645   1.083       .  S
C642       Br643   1.921       .  S
C647        C648   1.403       .  A
C647        C652   1.400       .  A
C647        H654   1.084       .  S
C649        C650   1.401       .  A
C649       Br656   1.920       .  S
C650        H655   1.083       .  S
C651        C652   1.413       .  A
C652       Br653   1.919       .  S
O657        V665   1.897       .  S
O657        C667   1.263       .  A
O658        V993   1.902   1_545  S
O658        C668   1.266       .  A
O659        V665   1.903   1_545  S
O659        C997   1.265       .  A
O660        V993   1.904       .  S
O660        C670   1.265       .  A
O661        V994   1.901       .  S
O661        C998   1.264   1_554  A
O662        V666   1.901   1_545  S
O662        C669   1.264       .  A
O663        V666   1.899   1_545  S
O663        C668   1.264       .  A
O664        V994   1.905       .  S
O664        C667   1.266       .  A
V665        O986   1.902   1_564  S
V665        O988   1.904       .  S
V665        V994   2.086       .  T
V666        O989   1.901       .  S
V666        O992   1.905       .  S
V666        V993   2.086       .  T
C667        C956   1.482       .  S
C668        C946   1.486       .  S
C669        O987   1.265       .  A
C669        C966   1.478       .  S
C670        O989   1.264       .  A
C670        C976   1.478       .  S
O671        V679   1.902       .  S
O671        C681   1.266   1_545  A
O672        V679   1.903       .  S
O672        C682   1.265       .  A
O673        V679   1.904   1_565  S
O673        C683   1.265       .  A
O674        V679   1.904       .  S
O674        C684   1.265       .  A
O675        V680   1.907       .  S
O675        C684   1.267       .  A
O676        V680   1.905   1_565  S
O676        C683   1.265       .  A
O677        V680   1.898       .  S
O677        C682   1.265       .  A
O678        V680   1.901   1_565  S
O678        C681   1.264       .  A
V679        V680   2.084       .  T
C681        C959   1.484       .  S
C682        C949   1.486       .  S
C683        C936   1.480       .  S
C684        C929   1.489       .  S
C685        C969   1.490       .  S
C685        C686   1.409       .  A
C685        C690   1.407       .  A
C686        C687   1.405       .  A
C686        H691   1.084       .  S
C687        C916   1.482       .  S
C687        C688   1.402       .  A
C688        C689   1.402       .  A
C688        H692   1.084       .  S
C689        C906   1.482       .  S
C689        C690   1.404       .  A
C690        H693   1.083       .  S
C694        C926   1.496       .  S
C694        C695   1.405       .  A
C694        C699   1.404       .  A
C695        C696   1.416       .  A
C695        H700   1.083       .  S
C696        C896   1.517       .  S
C696        C697   1.413       .  A
C697        C698   1.409       .  A
C697        H701   1.075       .  S
C698        C886   1.500       .  S
C698        C699   1.405       .  A
C699        H702   1.083       .  S
C703        C979   1.490       .  S
C703        C704   1.406       .  A
C703        C708   1.408       .  A
C704        C705   1.404       .  A
C704        H709   1.084       .  S
C705       C1204   1.480       .  S
C705        C706   1.403       .  A
C706        C707   1.403       .  A
C706        H710   1.084       .  S
C707       C1194   1.480       .  S
C707        C708   1.406       .  A
C708        H711   1.083       .  S
C712        C939   1.489       .  S
C712        C713   1.408       .  A
C712        C717   1.406       .  A
C713        C714   1.406       .  A
C713        H718   1.084       .  S
C714        C856   1.485       .  S
C714        C715   1.404       .  A
C715        C716   1.402       .  A
C715        H719   1.084       .  S
C716        C846   1.483       .  S
C716        C717   1.405       .  A
C717        H720   1.084       .  S
C721        C722   1.404       .  A
C722        C723   1.403       .  A
C722        H727   1.084       .  S
C723        C879   1.478       .  S
C723        C724   1.403       .  A
C724        H728   1.084       .  S
C725        C869   1.482       .  S
C725        C726   1.406       .  A
C726        H729   1.084       .  S
C730        C826   1.484       .  S
C730        C731   1.405   1_455  A
C731        C732   1.406       .  A
C731        H736   1.084       .  S
C732        C859   1.486       .  S
C732        C733   1.404   1_655  A
C733        H737   1.084       .  S
C734        C849   1.482       .  S
C734        C735   1.406       .  A
C735        H738   1.084       .  S
C739        C819   1.489       .  S
C739        C740   1.409       .  A
C740        C741   1.408       .  A
C740        H745   1.084       .  S
C741        C919   1.485       .  S
C741        C742   1.403       .  A
C742        H746   1.084       .  S
C743        C909   1.478       .  S
C743        C744   1.402       .  A
C744        H747   1.084       .  S
C748        C749   1.410       .  A
C749        C750   1.418       .  A
C749        H754   1.080       .  S
C750        C899   1.517       .  S
C750        C751   1.411       .  A
C751        H755   1.079       .  S
C752        C889   1.487       .  S
C752        C753   1.401       .  A
C753        H756   1.084       .  S
O757       V1093   1.900       .  S
O758        V765   1.893       .  S
O759       V1093   1.902       .  S
O759       C1097   1.264       .  A
O760        V765   1.900       .  S
O760        C770   1.264   1_554  A
O761       V1094   1.905       .  S
O762        V766   1.905       .  S
O763        V766   1.902       .  S
O763        C768   1.264       .  A
O764       V1094   1.897       .  S
O764        C767   1.265       .  A
V765       O1085   1.900   1_554  S
V765       O1087   1.902       .  S
V766       O1089   1.905   1_554  S
V766       O1092   1.897   1_554  S
C767        C789   1.488       .  S
C768        C799   1.484       .  S
C769       O1087   1.264       .  A
C769        C816   1.478       .  S
C770        C836   1.473       .  S
O771        V779   1.900       .  S
O772        V779   1.900       .  S
O773        V779   1.908       .  S
O773        C783   1.266       .  A
O774        V779   1.908       .  S
O774        C784   1.265       .  A
O775        V780   1.902       .  S
O776        V780   1.904       .  S
O777        V780   1.896       .  S
O777        C782   1.263       .  A
O778        V780   1.898       .  S
O778        C781   1.266       .  A
C781        C786   1.488       .  S
C782        C796   1.486       .  S
C783        C809   1.477       .  S
C784        C829   1.476       .  S
C785        C786   1.406       .  A
C785        C790   1.399       .  A
C785        H792   1.083       .  S
C787        C788   1.399       .  A
C787       Br794   1.922       .  S
C788        C789   1.407       .  A
C788        H793   1.083       .  S
C790       Br791   1.922       .  S
C795        C800   1.400       .  A
C795        H802   1.083       .  S
C796        C797   1.415       .  A
C797        C798   1.396       .  A
C797       Br804   1.923       .  S
C798        H803   1.083       .  S
C799        C800   1.413       .  A
C800       Br801   1.921       .  S
C805        C806   1.405       .  A
C805        C810   1.401       .  A
C805        H812   1.084       .  S
C807        C808   1.405       .  A
C807       Br814   1.918       .  S
C808        H813   1.083       .  S
C809        C810   1.408       .  A
C810       Br811   1.920       .  S
C815        C820   1.401       .  A
C815        H822   1.084       .  S
C816        C817   1.410       .  A
C817        C818   1.402       .  A
C817       Br824   1.920       .  S
C818        C819   1.405       .  A
C818        H823   1.083       .  S
C820       Br821   1.921       .  S
C825        C830   1.402       .  A
C825        H832   1.083       .  S
C826        C827   1.411   1_455  A
C827        C828   1.402       .  A
C827       Br834   1.920       .  S
C828        C829   1.403       .  A
C828        H833   1.084       .  S
C830       Br831   1.919       .  S
C835        C840   1.401       .  A
C835        H842   1.084       .  S
C836       C1165   1.408   1_556  A
C837       C1164   1.408       .  A
C837        C838   1.401       .  A
C837       Br844   1.919       .  S
C838       C1167   1.405       .  A
C838        H843   1.084       .  S
C839       C1166   1.405   1_556  A
C840       Br841   1.918       .  S
C845        C846   1.405       .  A
C845        C850   1.401       .  A
C845        H852   1.083       .  S
C846        C847   1.411       .  A
C847        C848   1.400       .  A
C847       Br854   1.920       .  S
C848        C849   1.404       .  A
C848        H853   1.083       .  S
C849        C850   1.409       .  A
C850       Br851   1.919       .  S
C855        C856   1.404       .  A
C855        C860   1.402       .  A
C855        H862   1.083       .  S
C856        C857   1.412       .  A
C857        C858   1.399       .  A
C857       Br864   1.920       .  S
C858        C859   1.404       .  A
C858        H863   1.084       .  S
C859        C860   1.412       .  A
C860       Br861   1.920       .  S
C865        C866   1.403   1_554  A
C865        C870   1.402       .  A
C865        H872   1.083       .  S
C866       C1035   1.480       .  S
C866       C1195   1.409       .  A
C867       C1194   1.409       .  A
C867        C868   1.401       .  A
C867       Br874   1.917       .  S
C868       C1197   1.404       .  A
C868        H873   1.084       .  S
C869       C1196   1.404       .  A
C869        C870   1.410   1_556  A
C870       Br871   1.919       .  S
C875       C1204   1.404       .  A
C875        C880   1.401       .  A
C875        H882   1.083       .  S
C876       C1033   1.480       .  S
C876       C1203   1.404       .  A
C876        C877   1.409   1_556  A
C877        C878   1.398       .  A
C877       Br884   1.919       .  S
C878        C879   1.402   1_554  A
C878        H883   1.084       .  S
C879       C1208   1.409       .  A
C880       C1207   1.409       .  A
C880       Br881   1.918       .  S
C885        C886   1.412       .  A
C885        C890   1.407       .  A
C885        H892   1.083       .  S
C886        C887   1.419       .  A
C887        C888   1.396       .  A
C887       Br894   1.924       .  S
C888        C889   1.401       .  A
C888        H893   1.084       .  S
C889        C890   1.408       .  A
C890       Br891   1.917       .  S
C895        C896   1.410       .  A
C895        C900   1.398       .  A
C895        H902   1.083       .  S
C896        C897   1.422       .  A
C897        C898   1.406       .  A
C897       Br904   1.925       .  S
C898        C899   1.412       .  A
C898        H903   1.081       .  S
C899        C900   1.421       .  A
C900       Br901   1.927       .  S
C905        C906   1.404       .  A
C905        C910   1.400       .  A
C905        H912   1.083       .  S
C906       C1235   1.412       .  A
C907       C1234   1.412       .  A
C907        C908   1.399       .  A
C907       Br914   1.920       .  S
C908        C909   1.402       .  A
C908        H913   1.084       .  S
C909       C1238   1.409   1_554  A
C910       C1237   1.409       .  A
C910       Br911   1.920       .  S
C915       C1244   1.403       .  A
C915        C920   1.402       .  A
C915        H922   1.083       .  S
C916       C1243   1.403       .  A
C916        C917   1.410       .  A
C917        C918   1.400       .  A
C917       Br924   1.919       .  S
C918       C1247   1.403       .  A
C918        H923   1.084       .  S
C919       C1246   1.403   1_554  A
C919        C920   1.413       .  A
C920       Br921   1.920       .  S
C925        C926   1.406       .  A
C925        C930   1.403       .  A
C925        H932   1.083       .  S
C926        C927   1.415       .  A
C927        C928   1.402       .  A
C927       Br934   1.921       .  S
C928        C929   1.405       .  A
C928        H933   1.084       .  S
C929        C930   1.414       .  A
C930       Br931   1.920       .  S
C935        C936   1.403       .  A
C935        C940   1.402       .  A
C935        H942   1.084       .  S
C936        C937   1.410       .  A
C937        C938   1.402       .  A
C937       Br944   1.920       .  S
C938        C939   1.406       .  A
C938        H943   1.083       .  S
C939        C940   1.413       .  A
C940       Br941   1.920       .  S
C945        C946   1.406       .  A
C945        C950   1.401       .  A
C945        H952   1.083       .  S
C946        C947   1.414   1_545  A
C947        C948   1.399       .  A
C947       Br954   1.922       .  S
C948        C949   1.405   1_565  A
C948        H953   1.083       .  S
C949        C950   1.414       .  A
C950       Br951   1.921       .  S
C955        C956   1.404       .  A
C955        C960   1.401       .  A
C955        H962   1.084       .  S
C956        C957   1.413   1_565  A
C957        C958   1.399       .  A
C957       Br964   1.922       .  S
C958        C959   1.405   1_545  A
C958        H963   1.084       .  S
C959        C960   1.414       .  A
C960       Br961   1.921       .  S
C965       C1294   1.402       .  A
C965        C970   1.400       .  A
C965        H972   1.083       .  S
C966       C1293   1.402       .  A
C966        C967   1.409       .  A
C967        C968   1.401       .  A
C967       Br974   1.920       .  S
C968        C969   1.407       .  A
C968        H973   1.083       .  S
C969       C1298   1.414       .  A
C970       C1297   1.414       .  A
C970       Br971   1.921       .  S
C975        C976   1.403       .  A
C975        C980   1.400       .  A
C975        H982   1.084       .  S
C976       C1305   1.409       .  A
C977       C1304   1.409   1_554  A
C977        C978   1.401       .  A
C977       Br984   1.919       .  S
C978       C1307   1.408   1_554  A
C978        H983   1.083       .  S
C979       C1306   1.408       .  A
C979        C980   1.413       .  A
C980       Br981   1.919       .  S
O985        V993   1.897       .  S
O985        C995   1.263       .  A
O986        C996   1.266       .  A
O987        V993   1.903   1_545  S
O988        C998   1.265   1_554  A
O990        V994   1.901   1_545  S
O990        C997   1.264       .  A
O991        V994   1.899   1_546  S
O991        C996   1.264       .  A
O992        C995   1.266       .  A
C995       C1284   1.482       .  S
C996       C1274   1.487       .  S
C997       C1294   1.478       .  S
C998       C1304   1.478       .  S
O999       V1007   1.901       .  S
O999       C1009   1.266   1_545  A
O1000      V1007   1.903       .  S
O1000      C1010   1.265       .  A
O1001      V1007   1.904   1_565  S
O1001      C1011   1.265       .  A
O1002      V1007   1.904       .  S
O1002      C1012   1.265       .  A
O1003      V1008   1.907       .  S
O1003      C1012   1.267       .  A
O1004      V1008   1.905   1_565  S
O1004      C1011   1.265       .  A
O1005      V1008   1.898       .  S
O1005      C1010   1.265       .  A
O1006      V1008   1.901   1_565  S
O1006      C1009   1.264       .  A
V1007      V1008   2.084       .  T
C1009      C1287   1.484       .  S
C1010      C1277   1.486       .  S
C1011      C1264   1.480       .  S
C1012      C1257   1.489       .  S
C1013      C1297   1.490       .  S
C1013      C1014   1.409       .  A
C1013      C1018   1.407       .  A
C1014      C1015   1.405       .  A
C1014      H1019   1.084       .  S
C1015      C1244   1.482       .  S
C1015      C1016   1.402       .  A
C1016      C1017   1.402       .  A
C1016      H1020   1.084       .  S
C1017      C1234   1.482       .  S
C1017      C1018   1.404       .  A
C1018      H1021   1.083       .  S
C1022      C1254   1.496       .  S
C1022      C1023   1.405       .  A
C1022      C1027   1.404       .  A
C1023      C1024   1.416       .  A
C1023      H1028   1.083       .  S
C1024      C1224   1.517       .  S
C1024      C1025   1.413       .  A
C1025      C1026   1.409       .  A
C1025      H1029   1.075       .  S
C1026      C1214   1.500       .  S
C1026      C1027   1.405       .  A
C1027      H1030   1.083       .  S
C1031      C1307   1.490       .  S
C1031      C1032   1.406       .  A
C1031      C1036   1.408       .  A
C1032      C1033   1.404       .  A
C1032      H1037   1.084       .  S
C1033      C1034   1.403       .  A
C1034      C1035   1.403       .  A
C1034      H1038   1.084       .  S
C1035      C1036   1.406       .  A
C1036      H1039   1.083       .  S
C1040      C1267   1.489       .  S
C1040      C1041   1.408       .  A
C1040      C1045   1.406       .  A
C1041      C1042   1.406       .  A
C1041      H1046   1.084       .  S
C1042      C1184   1.485       .  S
C1042      C1043   1.404       .  A
C1043      C1044   1.402       .  A
C1043      H1047   1.084       .  S
C1044      C1174   1.483       .  S
C1044      C1045   1.405       .  A
C1045      H1048   1.084       .  S
C1049      C1050   1.404       .  A
C1050      C1051   1.403       .  A
C1050      H1055   1.084       .  S
C1051      C1207   1.478       .  S
C1051      C1052   1.403       .  A
C1052      H1056   1.084       .  S
C1053      C1197   1.482       .  S
C1053      C1054   1.406       .  A
C1054      H1057   1.084       .  S
C1058      C1154   1.484       .  S
C1058      C1059   1.405   1_455  A
C1059      C1060   1.406       .  A
C1059      H1064   1.084       .  S
C1060      C1187   1.486       .  S
C1060      C1061   1.404   1_655  A
C1061      H1065   1.084       .  S
C1062      C1177   1.482       .  S
C1062      C1063   1.406       .  A
C1063      H1066   1.084       .  S
C1067      C1147   1.489       .  S
C1067      C1068   1.409       .  A
C1068      C1069   1.408       .  A
C1068      H1073   1.084       .  S
C1069      C1247   1.485       .  S
C1069      C1070   1.403       .  A
C1070      H1074   1.084       .  S
C1071      C1237   1.478       .  S
C1071      C1072   1.402       .  A
C1072      H1075   1.084       .  S
C1076      C1077   1.410       .  A
C1077      C1078   1.418       .  A
C1077      H1082   1.080       .  S
C1078      C1227   1.517       .  S
C1078      C1079   1.411       .  A
C1079      H1083   1.078       .  S
C1080      C1217   1.487       .  S
C1080      C1081   1.401       .  A
C1081      H1084   1.084       .  S
O1086      V1093   1.893       .  S
O1088      V1093   1.900       .  S
O1088      C1098   1.264       .  A
O1090      V1094   1.905       .  S
O1091      V1094   1.902       .  S
O1091      C1096   1.264       .  A
O1092      C1095   1.265       .  A
C1095      C1117   1.488       .  S
C1096      C1127   1.484       .  S
C1097      C1144   1.478       .  S
C1098      C1164   1.473       .  S
O1099      V1107   1.900       .  S
O1100      V1107   1.900       .  S
O1101      V1107   1.908       .  S
O1101      C1111   1.266       .  A
O1102      V1107   1.908       .  S
O1102      C1112   1.265       .  A
O1103      V1108   1.902       .  S
O1104      V1108   1.904       .  S
O1105      V1108   1.896       .  S
O1105      C1110   1.263       .  A
O1106      V1108   1.898       .  S
O1106      C1109   1.266       .  A
C1109      C1114   1.488       .  S
C1110      C1124   1.486       .  S
C1111      C1137   1.477       .  S
C1112      C1157   1.476       .  S
C1113      C1114   1.406       .  A
C1113      C1118   1.399       .  A
C1113      H1120   1.083       .  S
C1115      C1116   1.399       .  A
C1115     Br1122   1.922       .  S
C1116      C1117   1.407       .  A
C1116      H1121   1.083       .  S
C1118     Br1119   1.922       .  S
C1123      C1128   1.400       .  A
C1123      H1130   1.083       .  S
C1124      C1125   1.415       .  A
C1125      C1126   1.396       .  A
C1125     Br1132   1.923       .  S
C1126      H1131   1.083       .  S
C1127      C1128   1.413       .  A
C1128     Br1129   1.921       .  S
C1133      C1134   1.405       .  A
C1133      C1138   1.401       .  A
C1133      H1140   1.084       .  S
C1135      C1136   1.405       .  A
C1135     Br1142   1.918       .  S
C1136      H1141   1.083       .  S
C1137      C1138   1.408       .  A
C1138     Br1139   1.920       .  S
C1143      C1148   1.401       .  A
C1143      H1150   1.084       .  S
C1144      C1145   1.410       .  A
C1145      C1146   1.402       .  A
C1145     Br1152   1.920       .  S
C1146      C1147   1.405       .  A
C1146      H1151   1.083       .  S
C1148     Br1149   1.921       .  S
C1153      C1158   1.402       .  A
C1153      H1160   1.083       .  S
C1154      C1155   1.411   1_455  A
C1155      C1156   1.402       .  A
C1155     Br1162   1.920       .  S
C1156      C1157   1.403       .  A
C1156      H1161   1.084       .  S
C1158     Br1159   1.919       .  S
C1163      C1168   1.401       .  A
C1163      H1170   1.084       .  S
C1165      C1166   1.401       .  A
C1165     Br1172   1.919       .  S
C1166      H1171   1.084       .  S
C1168     Br1169   1.918       .  S
C1173      C1174   1.405       .  A
C1173      C1178   1.401       .  A
C1173      H1180   1.083       .  S
C1174      C1175   1.411       .  A
C1175      C1176   1.400       .  A
C1175     Br1182   1.920       .  S
C1176      C1177   1.404       .  A
C1176      H1181   1.083       .  S
C1177      C1178   1.409       .  A
C1178     Br1179   1.919       .  S
C1183      C1184   1.404       .  A
C1183      C1188   1.402       .  A
C1183      H1190   1.083       .  S
C1184      C1185   1.412       .  A
C1185      C1186   1.399       .  A
C1185     Br1192   1.920       .  S
C1186      C1187   1.404       .  A
C1186      H1191   1.084       .  S
C1187      C1188   1.412       .  A
C1188     Br1189   1.920       .  S
C1193      C1194   1.403       .  A
C1193      C1198   1.402       .  A
C1193      H1200   1.083       .  S
C1195      C1196   1.401       .  A
C1195     Br1202   1.917       .  S
C1196      H1201   1.084       .  S
C1197      C1198   1.410       .  A
C1198     Br1199   1.919       .  S
C1203      C1208   1.401       .  A
C1203      H1210   1.083       .  S
C1204      C1205   1.409       .  A
C1205      C1206   1.398       .  A
C1205     Br1212   1.919       .  S
C1206      C1207   1.402       .  A
C1206      H1211   1.084       .  S
C1208     Br1209   1.918       .  S
C1213      C1214   1.412       .  A
C1213      C1218   1.407       .  A
C1213      H1220   1.083       .  S
C1214      C1215   1.419       .  A
C1215      C1216   1.396       .  A
C1215     Br1222   1.924       .  S
C1216      C1217   1.401       .  A
C1216      H1221   1.084       .  S
C1217      C1218   1.408       .  A
C1218     Br1219   1.917       .  S
C1223      C1224   1.410       .  A
C1223      C1228   1.398       .  A
C1223      H1230   1.083       .  S
C1224      C1225   1.422       .  A
C1225      C1226   1.406       .  A
C1225     Br1232   1.925       .  S
C1226      C1227   1.412       .  A
C1226      H1231   1.081       .  S
C1227      C1228   1.421       .  A
C1228     Br1229   1.927       .  S
C1233      C1234   1.404   1_556  A
C1233      C1238   1.400       .  A
C1233      H1240   1.083       .  S
C1235      C1236   1.399       .  A
C1235     Br1242   1.920       .  S
C1236      C1237   1.402       .  A
C1236      H1241   1.084       .  S
C1238     Br1239   1.920       .  S
C1243      C1248   1.402       .  A
C1243      H1250   1.084       .  S
C1244      C1245   1.410   1_554  A
C1245      C1246   1.400       .  A
C1245     Br1252   1.919       .  S
C1246      H1251   1.084       .  S
C1247      C1248   1.413       .  A
C1248     Br1249   1.920       .  S
C1253      C1254   1.406       .  A
C1253      C1258   1.403       .  A
C1253      H1260   1.083       .  S
C1254      C1255   1.415       .  A
C1255      C1256   1.402       .  A
C1255     Br1262   1.921       .  S
C1256      C1257   1.405       .  A
C1256      H1261   1.084       .  S
C1257      C1258   1.414       .  A
C1258     Br1259   1.920       .  S
C1263      C1264   1.403       .  A
C1263      C1268   1.402       .  A
C1263      H1270   1.084       .  S
C1264      C1265   1.410       .  A
C1265      C1266   1.402       .  A
C1265     Br1272   1.920       .  S
C1266      C1267   1.406       .  A
C1266      H1271   1.083       .  S
C1267      C1268   1.413       .  A
C1268     Br1269   1.920       .  S
C1273      C1274   1.406       .  A
C1273      C1278   1.401       .  A
C1273      H1280   1.083       .  S
C1274      C1275   1.414   1_545  A
C1275      C1276   1.399       .  A
C1275     Br1282   1.922       .  S
C1276      C1277   1.405   1_565  A
C1276      H1281   1.083       .  S
C1277      C1278   1.414       .  A
C1278     Br1279   1.921       .  S
C1283      C1284   1.404       .  A
C1283      C1288   1.401       .  A
C1283      H1290   1.084       .  S
C1284      C1285   1.413   1_565  A
C1285      C1286   1.399       .  A
C1285     Br1292   1.922       .  S
C1286      C1287   1.405   1_545  A
C1286      H1291   1.084       .  S
C1287      C1288   1.414       .  A
C1288     Br1289   1.921       .  S
C1293      C1298   1.400       .  A
C1293      H1300   1.083       .  S
C1294      C1295   1.409   1_554  A
C1295      C1296   1.401       .  A
C1295     Br1302   1.920       .  S
C1296      C1297   1.407   1_556  A
C1296      H1301   1.083       .  S
C1298     Br1299   1.921       .  S
C1303      C1304   1.403       .  A
C1303      C1308   1.400       .  A
C1303      H1310   1.084       .  S
C1305      C1306   1.401       .  A
C1305     Br1312   1.919       .  S
C1306      H1311   1.083       .  S
C1307      C1308   1.413       .  A
C1308     Br1309   1.919       .  S
