geometry optimzed in LAMMPS
_audit_creation_date              2020-12-01 
_audit_creation_method            'lammps2cif' 
_symmetry_space_group_name_H-M    'P1' 
_symmetry_Int_Tables_number       1 
_symmetry_cell_setting            triclinic 
loop_ 
_symmetry_equiv_pos_as_xyz 
  x,y,z 
_cell_length_a                    41.88369318 
_cell_length_b                    41.810284163899155 
_cell_length_c                    43.28066874417861 
_cell_angle_alpha                 90.1118163758791 
_cell_angle_beta                  89.9489893348945 
_cell_angle_gamma                 82.82916154688724 
loop_ 
_atom_site_label 
_atom_site_type_symbol 
_atom_site_fract_x 
_atom_site_fract_y 
_atom_site_fract_z 
_atom_site_charge 
N1          N  0.05496054  0.49312224  0.44196828    -0.07300
N2          N  0.07452825  0.00236382  0.42063437    -0.59400
N3          N  0.02251152  0.42714960  0.46368910    -0.06900
N4          N  0.02623264  0.39608462  0.45709049    -0.61500
N5          N  0.00614043  0.44359195  0.44170903    -0.06500
N6          N  0.49877294  0.42391668  0.41957771    -0.59300
N7          N  0.07166903  0.47649289  0.46366341    -0.06200
N8          N  0.10279455  0.47411108  0.45740861    -0.61900
C9          C  0.10417707  0.49065783  0.43071337     0.94900
C10         C  0.51125545  0.39430098  0.42960519     0.94700
N11         N  0.00517500  0.44327171  0.05784004    -0.07400
N12         N  0.49611689  0.42359000  0.07916336    -0.59900
N13         N  0.07150918  0.47577550  0.03705329    -0.05600
N14         N  0.10247727  0.47217749  0.04403465    -0.61200
N15         N  0.05466798  0.49249694  0.05869747    -0.07500
N16         N  0.07400328  0.00082171  0.08068129    -0.60200
N17         N  0.02245138  0.42677107  0.03638549    -0.05200
N18         N  0.02564496  0.39565050  0.04276666    -0.61300
Mn19       Mn  0.04767755  0.45099345  0.50014331     1.18400
C20         C  0.50883764  0.39398797  0.06926984     0.97000
C21         C  0.10370351  0.48811372  0.07113037     0.97700
N22         N  0.44846081  0.00110496  0.44160851    -0.07500
N23         N  0.42876484  0.49371309  0.41951779    -0.63800
N24         N  0.48163676  0.06675972  0.46391766    -0.06300
N25         N  0.47911575  0.09786902  0.45750194    -0.64500
N26         N  0.49728622  0.04995280  0.44168338    -0.07000
N27         N  0.00509675  0.06928552  0.41959613    -0.64100
N28         N  0.43203392  0.01799259  0.46338615    -0.05900
N29         N  0.40105474  0.02218163  0.45666707    -0.64800
Mn30       Mn  0.50166679  0.49685872  0.44086617     1.10700
C31         C  0.39942934  0.00679006  0.42940209     0.98200
C32         C  0.99395537  0.09924129  0.42978520     0.98300
N33         N  0.49713212  0.04978251  0.05861565    -0.07000
N34         N  0.00533487  0.06929204  0.08055133    -0.62400
N35         N  0.43143597  0.01707750  0.03604484    -0.06300
N36         N  0.40021131  0.01911102  0.04171585    -0.59100
N37         N  0.44789554  0.00047070  0.05786774    -0.07600
N38         N  0.42812131  0.49112336  0.07891314    -0.61900
N39         N  0.48051105  0.06645395  0.03695671    -0.06600
N40         N  0.47699564  0.09751289  0.04373962    -0.59100
Mn41       Mn  0.00123046  0.99653764  0.05918689     1.20200
Mn42       Mn  0.45580537  0.04273719  0.00011775     1.10100
Cl43       Cl  0.00162608  0.99681848  0.00007795    -0.87100
C44         C  0.99274796  0.09896910  0.07082902     0.95200
C45         C  0.39848600  0.00253699  0.06834454     0.95000
C46         C  0.00420440  0.27446882  0.13505689     0.79100
N47         N  0.00611923  0.27439307  0.16641666    -0.79200
C48         C  0.00567275  0.24651546  0.18245386     0.81500
N49         N  0.00339875  0.21867254  0.16684994    -0.79200
C50         C  0.00113071  0.21862516  0.13558246     0.81600
N51         N  0.00157088  0.24654892  0.11965958    -0.80900
C52         C  0.00878555  0.27414386  0.36356246     0.79100
N53         N  0.00737505  0.24619313  0.37920006    -0.79200
C54         C  0.00633243  0.21812775  0.36350597     0.81500
N55         N  0.00689846  0.21821139  0.33211790    -0.79200
C56         C  0.00827602  0.24609461  0.31635731     0.81600
N57         N  0.00900590  0.27404102  0.33221249    -0.80900
C58         C  0.22232145  0.49752173  0.13740131     0.79100
N59         N  0.22340892  0.49607825  0.16874363    -0.79200
C60         C  0.25191551  0.49565104  0.18375874     0.81500
N61         N  0.27944068  0.49630037  0.16726216    -0.79200
C62         C  0.27871192  0.49826943  0.13587498     0.81600
N63         N  0.24990730  0.49904619  0.12111603    -0.80900
C64         C  0.22327875  0.49891405  0.36413493     0.79100
N65         N  0.25096811  0.50082539  0.38007859    -0.79200
C66         C  0.27933987  0.50139161  0.36485508     0.81500
N67         N  0.27993168  0.49991995  0.33349550    -0.79200
C68         C  0.25245793  0.49819069  0.31733595     0.81600
N69         N  0.22414524  0.49777439  0.33269190    -0.80900
C70         C  0.26615459  0.46887104  0.23459968    -0.03000
C71         C  0.25274541  0.49621461  0.21791371     0.06700
C72         C  0.24057132  0.02430512  0.23393823    -0.03100
C73         C  0.24121811  0.02509088  0.26646773    -0.03100
C74         C  0.25329544  0.49759161  0.28317535     0.06800
C75         C  0.26652316  0.46958987  0.26719731    -0.03300
Br76       Br  0.28520079  0.43230253  0.29001821    -0.01800
Br77       Br  0.28309325  0.43018258  0.21273828    -0.01900
Br78       Br  0.22756525  0.06476789  0.28822162    -0.01900
Br79       Br  0.22389300  0.06239015  0.21118065    -0.01900
C80         C  0.03109514  0.25987153  0.23278997    -0.03000
C81         C  0.00651612  0.24652443  0.21673388     0.06700
C82         C  0.98251719  0.23315361  0.23362113    -0.03100
C83         C  0.98304712  0.23321959  0.26614583    -0.03100
C84         C  0.00779749  0.24623274  0.28214576     0.06800
C85         C  0.03176115  0.25968330  0.26534955    -0.03300
Br86       Br  0.06648103  0.27668970  0.28678305    -0.01800
Br87       Br  0.06504164  0.27699765  0.21047645    -0.01900
Br88       Br  0.94840161  0.21738597  0.28870112    -0.01900
Br89       Br  0.94765061  0.21612701  0.21248387    -0.01900
C90         C  0.02693738  0.16102916  0.37714909    -0.03000
C91         C  0.00324071  0.18784501  0.38036193     0.06700
C92         C  0.47602501  0.18544866  0.39899495    -0.03100
C93         C  0.47257046  0.15644481  0.41454480    -0.03100
C94         C  0.99695189  0.12965461  0.41238909     0.06800
C95         C  0.02414058  0.13222888  0.39331748    -0.03300
Br96       Br  0.05887394  0.09728197  0.38979070    -0.01800
Br97       Br  0.06401985  0.16417119  0.35121754    -0.01900
Br98       Br  0.43290886  0.15348453  0.43666917    -0.01900
Br99       Br  0.44245497  0.22156350  0.40184951    -0.01900
C100        C  0.03814407  0.31200771  0.39388042    -0.03000
C101        C  0.00937552  0.30472508  0.38042469     0.06700
C102        C  0.48133801  0.32708042  0.38224126    -0.03100
C103        C  0.48186873  0.35652579  0.39804477    -0.03100
C104        C  0.01066834  0.36383300  0.41197606     0.06800
C105        C  0.03893732  0.34152293  0.40943114    -0.03300
Br106      Br  0.07955859  0.35183183  0.42529442    -0.01800
Br107      Br  0.07674682  0.28174875  0.39005386    -0.01900
Br108      Br  0.44258573  0.38584235  0.40160150    -0.01900
Br109      Br  0.44204540  0.31674628  0.36354283    -0.01900
C110        C  0.46856829  0.17924165  0.11105490    -0.03000
C111        C  0.99883114  0.18812811  0.11909754     0.06700
C112        C  0.02699574  0.16736734  0.11219399    -0.03100
C113        C  0.02502352  0.13826760  0.09631995    -0.03100
C114        C  0.99479636  0.12926601  0.08813325     0.06800
C115        C  0.46649735  0.14965563  0.09598084    -0.03300
Br116      Br  0.42481242  0.13632122  0.08778757    -0.01800
Br117      Br  0.42998538  0.20750875  0.12116131    -0.01900
Br118      Br  0.06390813  0.11181103  0.08430506    -0.01900
Br119      Br  0.06830346  0.17902999  0.12452180    -0.00600
C120        C  0.47679515  0.32173998  0.10586032    -0.03000
C121        C  0.00526691  0.30480313  0.11787422     0.06700
C122        C  0.03474197  0.31724435  0.11404665    -0.03100
C123        C  0.03568107  0.34678923  0.09876630    -0.03100
C124        C  0.00727445  0.36378899  0.08664884     0.06800
C125        C  0.47775521  0.35127792  0.09038468    -0.03300
Br126      Br  0.43881683  0.37426427  0.07369512    -0.01800
Br127      Br  0.43654352  0.30438801  0.11072462    -0.01900
Br128      Br  0.07575042  0.36471925  0.09579336    -0.01900
Br129      Br  0.07410345  0.29316266  0.12863524    -0.01900
C130        C  0.34962535  0.48119244  0.41997388    -0.03000
C131        C  0.36898395  0.50527501  0.41258014     0.06700
C132        C  0.35853960  0.02867203  0.39030953    -0.03100
C133        C  0.32886572  0.02780602  0.37517899    -0.03100
C134        C  0.30959699  0.50337391  0.38211922     0.06800
C135        C  0.32002719  0.48014591  0.40480167    -0.03300
Br136      Br  0.29458051  0.44603747  0.41445365    -0.01800
Br137      Br  0.36402083  0.44948433  0.45087006    -0.01900
Br138      Br  0.31375044  0.06149684  0.34630153    -0.01900
Br139      Br  0.38461284  0.06240087  0.38109065    -0.01900
C140        C  0.17536031  0.47046745  0.37654890    -0.03000
C141        C  0.19254404  0.49713823  0.38097646     0.06700
C142        C  0.18053528  0.02161155  0.40192520    -0.03100
C143        C  0.15158150  0.01954818  0.41814641    -0.03100
C144        C  0.13432249  0.49315666  0.41341479     0.06800
C145        C  0.14626488  0.46864842  0.39254052    -0.03300
Br146      Br  0.12271024  0.43236047  0.38614096    -0.01800
Br147      Br  0.19263687  0.43525207  0.35010727    -0.01900
Br148      Br  0.13542811  0.05281992  0.44712035    -0.01900
Br149      Br  0.20302437  0.05873824  0.40775579    -0.01900
C150        C  0.36210838  0.01866198  0.11308420    -0.03000
C151        C  0.36811726  0.50092162  0.08560644     0.06700
C152        C  0.34470016  0.48252809  0.07424781    -0.03100
C153        C  0.31548933  0.48159457  0.09041169    -0.03100
C154        C  0.30920789  0.49961172  0.11807201     0.06800
C155        C  0.33272529  0.01844343  0.12901401    -0.03300
Br156      Br  0.32437382  0.04633652  0.16454688    -0.01800
Br157      Br  0.39393159  0.04450987  0.12824121    -0.01900
Br158      Br  0.28518578  0.45419631  0.07483151    -0.01900
Br159      Br  0.35337661  0.45750476  0.03701121    -0.01900
C160        C  0.14881203  0.46414887  0.10534036    -0.03000
C161        C  0.13381469  0.49066081  0.08846299     0.06700
C162        C  0.14796118  0.01947270  0.08783585    -0.03100
C163        C  0.17644191  0.02207253  0.10452273    -0.03100
C164        C  0.19158121  0.49552179  0.12105217     0.06800
C165        C  0.17762811  0.46652185  0.12152836    -0.03300
Br166      Br  0.19854520  0.42969329  0.14370447    -0.01800
Br167      Br  0.12996239  0.42449258  0.10622315    -0.01900
Br168      Br  0.19396794  0.06255027  0.10581558    -0.01900
Br169      Br  0.12926051  0.05471435  0.06257401    -0.01900
N170        N  0.05500629  0.49311205  0.94198165    -0.07300
N171        N  0.07443481  0.00242811  0.92058058    -0.59400
N172        N  0.02252239  0.42713813  0.96368811    -0.06900
N173        N  0.02621062  0.39607152  0.95709745    -0.61500
N174        N  0.00618697  0.44358909  0.94169319    -0.06500
N175        N  0.49884124  0.42390070  0.91955191    -0.59300
N176        N  0.07170276  0.47646270  0.96367161    -0.06200
N177        N  0.10282945  0.47406365  0.95742022    -0.61900
C178        C  0.10422505  0.49062399  0.93073456     0.94900
C179        C  0.51129527  0.39427957  0.92958901     0.94700
N180        N  0.00517266  0.44326856  0.55784095    -0.07400
N181        N  0.49612831  0.42360922  0.57917010    -0.59900
N182        N  0.07149828  0.47579655  0.53704978    -0.05600
N183        N  0.10246627  0.47219370  0.54403310    -0.61200
N184        N  0.05465694  0.49250609  0.55870132    -0.07500
N185        N  0.07398523  0.00079612  0.58070963    -0.60200
N186        N  0.02245413  0.42677351  0.53638672    -0.05200
N187        N  0.02564103  0.39565013  0.54275785    -0.61300
Mn188      Mn  0.04769082  0.45097496  0.00014615     1.18400
C189        C  0.50884585  0.39400732  0.56927312     0.97000
C190        C  0.10369302  0.48811647  0.57113649     0.97700
N191        N  0.44838391  0.00111676  0.94165409    -0.07500
N192        N  0.42883933  0.49367891  0.91948051    -0.63800
N193        N  0.48156747  0.06677211  0.96394598    -0.06300
N194        N  0.47905118  0.09788310  0.95753511    -0.64500
N195        N  0.49721442  0.04996517  0.94170938    -0.07000
N196        N  0.00500133  0.06933185  0.91959957    -0.64100
N197        N  0.43197157  0.01800664  0.96343965    -0.05900
N198        N  0.40099337  0.02223666  0.95671929    -0.64800
Mn199      Mn  0.50173436  0.49683635  0.94085525     1.10700
C200        C  0.39935007  0.00686600  0.92944666     0.98200
C201        C  0.99385536  0.09928332  0.92979703     0.98300
N202        N  0.49714622  0.04978416  0.55859250    -0.07000
N203        N  0.00531657  0.06926230  0.58055777    -0.62400
N204        N  0.43145389  0.01708933  0.53599814    -0.06300
N205        N  0.40022816  0.01916446  0.54167688    -0.59100
N206        N  0.44790044  0.00048764  0.55783270    -0.07600
N207        N  0.42813158  0.49111285  0.57894637    -0.61900
N208        N  0.48054133  0.06645405  0.53692251    -0.06600
N209        N  0.47702382  0.09751338  0.54370294    -0.59100
Mn210      Mn  0.00122000  0.99650979  0.55919029     1.20200
Mn211      Mn  0.45584901  0.04273348  0.50007561     1.10100
Cl212      Cl  0.00165517  0.99678277  0.50008030    -0.87100
C213        C  0.99274365  0.09893971  0.57082455     0.95200
C214        C  0.39848770  0.00262160  0.56832197     0.95000
C215        C  0.00410319  0.27446656  0.63503947     0.79100
N216        N  0.00602620  0.27438882  0.66639982    -0.79200
C217        C  0.00558465  0.24650933  0.68243656     0.81500
N218        N  0.00331286  0.21866742  0.66683124    -0.79200
C219        C  0.00103508  0.21862158  0.63556481     0.81600
N220        N  0.00146866  0.24654652  0.61964222    -0.80900
C221        C  0.00865661  0.27415906  0.86354276     0.79100
N222        N  0.00723343  0.24621549  0.87918768    -0.79200
C223        C  0.00620376  0.21814509  0.86350140     0.81500
N224        N  0.00679699  0.21821258  0.83211395    -0.79200
C225        C  0.00818060  0.24608983  0.81634466     0.81600
N226        N  0.00889974  0.27404296  0.83219225    -0.80900
C227        C  0.22232543  0.49742185  0.63742543     0.79100
N228        N  0.22341575  0.49595954  0.66876677    -0.79200
C229        C  0.25192357  0.49552556  0.68378090     0.81500
N230        N  0.27944636  0.49618851  0.66728484    -0.79200
C231        C  0.27871562  0.49817839  0.63589948     0.81600
N232        N  0.24990964  0.49896186  0.62114085    -0.80900
C233        C  0.22333136  0.49880332  0.86415945     0.79100
N234        N  0.25102244  0.50072563  0.88009662    -0.79200
C235        C  0.27939252  0.50127200  0.86486477     0.81500
N236        N  0.27997792  0.49977645  0.83350597    -0.79200
C237        C  0.25250072  0.49803897  0.81735490     0.81600
N238        N  0.22419115  0.49763714  0.83271803    -0.80900
C239        C  0.26618946  0.46873925  0.73461263    -0.03000
C240        C  0.25275708  0.49607954  0.71793502     0.06700
C241        C  0.24056389  0.02463365  0.73391553    -0.03100
C242        C  0.24121113  0.02542229  0.76644566    -0.03100
C243        C  0.25332587  0.49744318  0.78319516     0.06800
C244        C  0.26656640  0.46945106  0.76721003    -0.03300
Br245      Br  0.28526847  0.43216631  0.79002044    -0.01800
Br246      Br  0.28315156  0.43006566  0.71274013    -0.01900
Br247      Br  0.22759991  0.06510984  0.78819636    -0.01900
Br248      Br  0.22390110  0.06271949  0.71115224    -0.01900
C249        C  0.03100629  0.25986566  0.73277558    -0.03000
C250        C  0.00643256  0.24651175  0.71671771     0.06700
C251        C  0.98244596  0.23312015  0.73360439    -0.03100
C252        C  0.98297743  0.23318081  0.76612927    -0.03100
C253        C  0.00771366  0.24621551  0.78213161     0.06800
C254        C  0.03166964  0.25967966  0.76533587    -0.03300
Br255      Br  0.06637616  0.27670830  0.78677060    -0.01800
Br256      Br  0.06495354  0.27699128  0.71046305    -0.01900
Br257      Br  0.94835140  0.21730637  0.78868068    -0.01900
Br258      Br  0.94759302  0.21606881  0.71246674    -0.01900
C259        C  0.02688892  0.16110655  0.87726288    -0.03000
C260        C  0.00311680  0.18787103  0.88036615     0.06700
C261        C  0.47595010  0.18541125  0.89892650    -0.03100
C262        C  0.47248516  0.15641467  0.91448515    -0.03100
C263        C  0.99684707  0.12969463  0.91240820     0.06800
C264        C  0.02410338  0.13231615  0.89344844    -0.03300
Br265      Br  0.05894279  0.09745379  0.89012899    -0.01800
Br266      Br  0.06405067  0.16431077  0.85146009    -0.01900
Br267      Br  0.43275715  0.15339752  0.93647453    -0.01900
Br268      Br  0.44232573  0.22148679  0.90164765    -0.01900
C269        C  0.03800749  0.31189431  0.89402867    -0.03000
C270        C  0.00927712  0.30473872  0.88040070     0.06700
C271        C  0.48139184  0.32712594  0.88210892    -0.03100
C272        C  0.48193156  0.35656882  0.89791591    -0.03100
C273        C  0.01063952  0.36382960  0.91196922     0.06800
C274        C  0.03884161  0.34140495  0.90957539    -0.03300
Br275      Br  0.07945022  0.35154316  0.92562515    -0.01800
Br276      Br  0.07651602  0.28146881  0.89043530    -0.01900
Br277      Br  0.44269050  0.38597102  0.90132072    -0.01900
Br278      Br  0.44213738  0.31688585  0.86326126    -0.01900
C279        C  0.46853602  0.17928496  0.61094747    -0.03000
C280        C  0.99875738  0.18811931  0.61908143     0.06700
C281        C  0.02692665  0.16731902  0.61228684    -0.03100
C282        C  0.02497948  0.13820522  0.59642862    -0.03100
C283        C  0.99476715  0.12923795  0.58813550     0.06800
C284        C  0.46647964  0.14969415  0.59587694    -0.03300
Br285      Br  0.42479804  0.13639524  0.58758907    -0.01800
Br286      Br  0.42994628  0.20758854  0.62095334    -0.01900
Br287      Br  0.06388805  0.11167602  0.58459599    -0.01900
Br288      Br  0.06820909  0.17895466  0.62473163    -0.00600
C289        C  0.47675171  0.32177176  0.60584464    -0.03000
C290        C  0.00518659  0.30479722  0.61785322     0.06700
C291        C  0.03467274  0.31721855  0.61403020    -0.03100
C292        C  0.03563514  0.34675971  0.59874862    -0.03100
C293        C  0.00724099  0.36377514  0.58662154     0.06800
C294        C  0.47773390  0.35130713  0.59036818    -0.03300
Br295      Br  0.43881275  0.37431023  0.57366033    -0.01800
Br296      Br  0.43648928  0.30443394  0.61067656    -0.01900
Br297      Br  0.07572005  0.36466219  0.59578775    -0.01900
Br298      Br  0.07401883  0.29311051  0.62862250    -0.01900
C299        C  0.34969963  0.48112410  0.91996922    -0.03000
C300        C  0.36905479  0.50520001  0.91254285     0.06700
C301        C  0.35841814  0.02889486  0.89045034    -0.03100
C302        C  0.32874554  0.02806200  0.87530759    -0.03100
C303        C  0.30965368  0.50327124  0.88211639     0.06800
C304        C  0.32009277  0.48006540  0.90481609    -0.03300
Br305      Br  0.29464351  0.44597423  0.91452244    -0.01800
Br306      Br  0.36411591  0.44943754  0.95087866    -0.01900
Br307      Br  0.31358698  0.06185821  0.84655485    -0.01900
Br308      Br  0.38444073  0.06270640  0.88138612    -0.01900
C309        C  0.17547325  0.47031967  0.87667570    -0.03000
C310        C  0.19260028  0.49704471  0.88100421     0.06700
C311        C  0.18047299  0.02174414  0.90195260    -0.03100
C312        C  0.15152203  0.01964619  0.91816808    -0.03100
C313        C  0.13437323  0.49310252  0.91343689     0.06800
C314        C  0.14637708  0.46851541  0.89266857    -0.03300
Br315      Br  0.12289388  0.43215409  0.88639771    -0.01800
Br316      Br  0.19282521  0.43502834  0.85035856    -0.01900
Br317      Br  0.13540826  0.05282428  0.94725132    -0.01900
Br318      Br  0.20299101  0.05883278  0.90790317    -0.01900
C319        C  0.36209709  0.01884401  0.61303183    -0.03000
C320        C  0.36812538  0.50087497  0.58564779     0.06700
C321        C  0.34470440  0.48249992  0.57426483    -0.03100
C322        C  0.31549186  0.48155290  0.59042216    -0.03100
C323        C  0.30921164  0.49953918  0.61810051     0.06800
C324        C  0.33270410  0.01866839  0.62895570    -0.03300
Br325      Br  0.32434797  0.04662747  0.66444123    -0.01800
Br326      Br  0.39393102  0.04469681  0.62815585    -0.01900
Br327      Br  0.28518426  0.45417856  0.57480575    -0.01900
Br328      Br  0.35337911  0.45751689  0.53700392    -0.01900
C329        C  0.14878937  0.46410999  0.60534173    -0.03000
C330        C  0.13380388  0.49063979  0.58848078     0.06700
C331        C  0.14793055  0.01951621  0.58776504    -0.03100
C332        C  0.17640424  0.02218519  0.60444013    -0.03100
C333        C  0.19157958  0.49544715  0.62107646     0.06800
C334        C  0.17761023  0.46645589  0.62153222    -0.03300
Br335      Br  0.19850954  0.42960355  0.64368536    -0.01800
Br336      Br  0.12991472  0.42446720  0.60619946    -0.01900
Br337      Br  0.19389211  0.06268529  0.60562576    -0.01900
Br338      Br  0.12921087  0.05466988  0.56240211    -0.01900
N339        N  0.05502280  0.99308920  0.44199525    -0.07300
N340        N  0.07445225  0.50240640  0.42059927    -0.59400
N341        N  0.02253245  0.92712275  0.46369660    -0.06900
N342        N  0.02622478  0.89605620  0.45710564    -0.61500
N343        N  0.00619616  0.94357269  0.44170141    -0.06500
N344        N  0.49883734  0.92390663  0.41955785    -0.59300
N345        N  0.07171460  0.97644486  0.46369125    -0.06200
N346        N  0.10284250  0.97404114  0.45744447    -0.61900
C347        C  0.10424388  0.99059311  0.43075486     0.94900
C348        C  0.51128630  0.89428528  0.42959757     0.94700
N349        N  0.00519438  0.94327924  0.05783676    -0.07400
N350        N  0.49612865  0.92359403  0.07917154    -0.59900
N351        N  0.07150997  0.97581450  0.03702931    -0.05600
N352        N  0.10247896  0.97220921  0.04400799    -0.61200
N353        N  0.05467287  0.99252224  0.05868480    -0.07500
N354        N  0.07399433  0.50081228  0.08068981    -0.60200
N355        N  0.02247244  0.92678562  0.03637936    -0.05200
N356        N  0.02566111  0.89566177  0.04274900    -0.61300
Mn357      Mn  0.04769540  0.95095836  0.50015949     1.18400
C358        C  0.50884529  0.89399275  0.06927208     0.97000
C359        C  0.10371099  0.98813008  0.07111164     0.97700
N360        N  0.44838397  0.50111979  0.44165123    -0.07500
N361        N  0.42885219  0.99366889  0.41947842    -0.63800
N362        N  0.48156776  0.56677702  0.46394059    -0.06300
N363        N  0.47904762  0.59788725  0.45752781    -0.64500
N364        N  0.49720900  0.54997016  0.44170100    -0.07000
N365        N  0.00502022  0.56931838  0.41960150    -0.64100
N366        N  0.43197011  0.51801079  0.46343511    -0.05900
N367        N  0.40099131  0.52223219  0.45671612    -0.64800
Mn368      Mn  0.50174149  0.99684248  0.44085048     1.10700
C369        C  0.39935057  0.50685570  0.42944576     0.98200
C370        C  0.99387177  0.59927119  0.42979357     0.98300
N371        N  0.49714296  0.54977202  0.05859817    -0.07000
N372        N  0.00532004  0.56928538  0.08054166    -0.62400
N373        N  0.43144730  0.51708144  0.03600043    -0.06300
N374        N  0.40022067  0.51914636  0.04167186    -0.59100
N375        N  0.44789292  0.50047681  0.05783361    -0.07600
N376        N  0.42813567  0.99108375  0.07894037    -0.61900
N377        N  0.48053704  0.56644329  0.03692958    -0.06600
N378        N  0.47702443  0.59750284  0.04370839    -0.59100
Mn379      Mn  0.00122508  0.49652899  0.05918289     1.20200
Mn380      Mn  0.45584352  0.54272815  0.00008128     1.10100
Cl381      Cl  0.00164791  0.49679782  0.00007331    -0.87100
C382        C  0.99273758  0.59896074  0.07081086     0.95200
C383        C  0.39847902  0.50259336  0.06831083     0.95000
C384        C  0.00411030  0.77448051  0.13503427     0.79100
N385        N  0.00603918  0.77440172  0.16639441    -0.79200
C386        C  0.00559696  0.74652219  0.18243118     0.81500
N387        N  0.00331841  0.71868144  0.16682566    -0.79200
C388        C  0.00103492  0.71863713  0.13555943     0.81600
N389        N  0.00147015  0.74656183  0.11963731    -0.80900
C390        C  0.00871120  0.77414154  0.36354226     0.79100
N391        N  0.00728409  0.74619665  0.37918392    -0.79200
C392        C  0.00625216  0.71812819  0.36349466     0.81500
N393        N  0.00684550  0.71819965  0.33210695    -0.79200
C394        C  0.00823244  0.74607854  0.31634067     0.81600
N395        N  0.00895412  0.77402930  0.33219170    -0.80900
C396        C  0.22234332  0.99735665  0.13742080     0.79100
N397        N  0.22343060  0.99587982  0.16876152    -0.79200
C398        C  0.25193821  0.99543106  0.18377908     0.81500
N399        N  0.27946346  0.99609449  0.16728636    -0.79200
C400        C  0.27873461  0.99809738  0.13590145     0.81600
N401        N  0.24992929  0.99889596  0.12114032    -0.80900
C402        C  0.22334767  0.99874813  0.36416416     0.79100
N403        N  0.25104185  0.00067732  0.38009396    -0.79200
C404        C  0.27941005  0.00121561  0.36485671     0.81500
N405        N  0.27999025  0.99970366  0.33349852    -0.79200
C406        C  0.25251002  0.99796109  0.31735384     0.81600
N407        N  0.22420249  0.99756911  0.33272291    -0.80900
C408        C  0.26619091  0.96864456  0.23461505    -0.03000
C409        C  0.25276638  0.99598544  0.21793364     0.06700
C410        C  0.24056194  0.52454059  0.23391438    -0.03100
C411        C  0.24120506  0.52532992  0.26644465    -0.03100
C412        C  0.25332921  0.99735662  0.28319407     0.06800
C413        C  0.26656438  0.96935999  0.26721270    -0.03300
Br414      Br  0.28525370  0.93207412  0.29002896    -0.01800
Br415      Br  0.28314766  0.92996607  0.21274769    -0.01900
Br416      Br  0.22757888  0.56501533  0.28819357    -0.01900
Br417      Br  0.22389732  0.56262512  0.21114989    -0.01900
C418        C  0.03103237  0.75987302  0.23276650    -0.03000
C419        C  0.00645346  0.74652257  0.21671275     0.06700
C420        C  0.98247046  0.73313058  0.23360417    -0.03100
C421        C  0.98301245  0.73318384  0.26612901    -0.03100
C422        C  0.00775614  0.74621084  0.28212715     0.06800
C423        C  0.03170699  0.75967829  0.26532689    -0.03300
Br424      Br  0.06642129  0.77670031  0.28675518    -0.01800
Br425      Br  0.06496977  0.77700878  0.21044805    -0.01900
Br426      Br  0.94838957  0.71731143  0.28868685    -0.01900
Br427      Br  0.94760671  0.71609099  0.21247340    -0.01900
C428        C  0.02692009  0.66108289  0.37725280    -0.03000
C429        C  0.00315546  0.68785375  0.38035685     0.06700
C430        C  0.47593160  0.68543405  0.39895617    -0.03100
C431        C  0.47247572  0.65643494  0.41451367    -0.03100
C432        C  0.99687080  0.62968095  0.41240253     0.06800
C433        C  0.02412770  0.63229476  0.39344042    -0.03300
Br434      Br  0.05895960  0.59742491  0.39011943    -0.01800
Br435      Br  0.06408078  0.66427453  0.35144490    -0.01900
Br436      Br  0.43278024  0.65343978  0.43656721    -0.01900
Br437      Br  0.44232849  0.72152457  0.40173648    -0.01900
C438        C  0.03805456  0.81189499  0.39401460    -0.03000
C439        C  0.00932253  0.80472084  0.38040352     0.06700
C440        C  0.48134952  0.82713918  0.38213369    -0.03100
C441        C  0.48189979  0.85657836  0.39794417    -0.03100
C442        C  0.01066449  0.86381261  0.41197575     0.06800
C443        C  0.03887766  0.84140550  0.40956490    -0.03300
Br444      Br  0.07948342  0.85156805  0.42559986    -0.01800
Br445      Br  0.07657837  0.78149447  0.39039577    -0.01900
Br446      Br  0.44266174  0.88598131  0.40137430    -0.01900
Br447      Br  0.44208344  0.81690391  0.36330562    -0.01900
C448        C  0.46855150  0.67925181  0.11098777    -0.03000
C449        C  0.99875493  0.68813637  0.11907421     0.06700
C450        C  0.02692530  0.66734859  0.11225425    -0.03100
C451        C  0.02497648  0.63823907  0.09638934    -0.03100
C452        C  0.99476248  0.62926034  0.08811931     0.06800
C453        C  0.46649192  0.64966338  0.09591437    -0.03300
Br454      Br  0.42481085  0.63634595  0.08766394    -0.01800
Br455      Br  0.42996204  0.70753438  0.12103979    -0.01900
Br456      Br  0.06388297  0.61173430  0.08451109    -0.01900
Br457      Br  0.06821126  0.67899511  0.12467417    -0.00600
C458        C  0.47676444  0.82175199  0.10584643    -0.03000
C459        C  0.00519832  0.80480948  0.11784689     0.06700
C460        C  0.03468830  0.81722132  0.11401708    -0.03100
C461        C  0.03565604  0.84676048  0.09873357    -0.03100
C462        C  0.00726309  0.86378366  0.08661195     0.06800
C463        C  0.47774068  0.85128877  0.09037129    -0.03300
Br464      Br  0.43881396  0.87428984  0.07367306    -0.01800
Br465      Br  0.43650441  0.80441199  0.11069110    -0.01900
Br466      Br  0.07574766  0.86464772  0.09576121    -0.01900
Br467      Br  0.07403205  0.79310174  0.12860124    -0.01900
C468        C  0.34969346  0.98112228  0.42000115    -0.03000
C469        C  0.36906798  0.00517076  0.41253919     0.06700
C470        C  0.35843558  0.52884131  0.39041685    -0.03100
C471        C  0.32876671  0.52799560  0.37527088    -0.03100
C472        C  0.30967417  0.00322229  0.38210313     0.06800
C473        C  0.32009110  0.98005288  0.40484315    -0.03300
Br474      Br  0.29462178  0.94599053  0.41459703    -0.01800
Br475      Br  0.36408250  0.94948007  0.45095865    -0.01900
Br476      Br  0.31362840  0.56175604  0.34647383    -0.01900
Br477      Br  0.38447371  0.56262929  0.38131133    -0.01900
C478        C  0.17546780  0.97028896  0.37666766    -0.03000
C479        C  0.19261924  0.99699408  0.38101719     0.06700
C480        C  0.18049113  0.52169543  0.40196061    -0.03100
C481        C  0.15154230  0.51960443  0.41818194    -0.03100
C482        C  0.13439502  0.99306227  0.41345938     0.06800
C483        C  0.14637231  0.96849151  0.39266388    -0.03300
Br484      Br  0.12285750  0.93215712  0.38636665    -0.01800
Br485      Br  0.19278560  0.93500969  0.35032018    -0.01900
Br486      Br  0.13543744  0.55278960  0.44726167    -0.01900
Br487      Br  0.20301333  0.55878338  0.40789785    -0.01900
C488        C  0.36208903  0.51879908  0.11302334    -0.03000
C489        C  0.36813054  0.00083077  0.08563968     0.06700
C490        C  0.34471138  0.98245550  0.07425292    -0.03100
C491        C  0.31550565  0.98149212  0.09041723    -0.03100
C492        C  0.30922915  0.99946506  0.11810374     0.06800
C493        C  0.33270282  0.51860619  0.12895430    -0.03300
Br494      Br  0.32434581  0.54655110  0.16444963    -0.01800
Br495      Br  0.39391101  0.54466896  0.12814178    -0.01900
Br496      Br  0.28520200  0.95411385  0.07479953    -0.01900
Br497      Br  0.35337672  0.95749858  0.03697472    -0.01900
C498        C  0.14880679  0.96408580  0.10529562    -0.03000
C499        C  0.13382264  0.99063455  0.08845978     0.06700
C500        C  0.14793710  0.51950675  0.08778428    -0.03100
C501        C  0.17641324  0.52215377  0.10446251    -0.03100
C502        C  0.19159815  0.99540253  0.12106641     0.06800
C503        C  0.17762764  0.96641215  0.12149156    -0.03300
Br504      Br  0.19852750  0.92953424  0.14360755    -0.01800
Br505      Br  0.12992975  0.92444404  0.10611291    -0.01900
Br506      Br  0.19391293  0.56264692  0.10568229    -0.01900
Br507      Br  0.12921681  0.55469235  0.06246134    -0.01900
N508        N  0.05494918  0.99313630  0.94195134    -0.07300
N509        N  0.07450701  0.50239542  0.92062099    -0.59400
N510        N  0.02251341  0.92716065  0.96368029    -0.06900
N511        N  0.02623469  0.89609564  0.95708063    -0.61500
N512        N  0.00612929  0.94360251  0.94170783    -0.06500
N513        N  0.49879156  0.92391208  0.91957110    -0.59300
N514        N  0.07166447  0.97650966  0.96364361    -0.06200
N515        N  0.10278881  0.97413709  0.95738540    -0.61900
C516        C  0.10416322  0.99068645  0.93069069     0.94900
C517        C  0.51127573  0.89429624  0.92959734     0.94700
N518        N  0.00516712  0.94325272  0.55784301    -0.07400
N519        N  0.49612311  0.92360578  0.57916024    -0.59900
N520        N  0.07150837  0.97575577  0.53707383    -0.05600
N521        N  0.10247640  0.97216645  0.54405614    -0.61200
N522        N  0.05466277  0.99247398  0.55871696    -0.07500
N523        N  0.07398318  0.50080903  0.58069994    -0.60200
N524        N  0.02244805  0.92675455  0.53639011    -0.05200
N525        N  0.02564686  0.89563414  0.54277092    -0.61300
Mn526      Mn  0.04768454  0.95100774  0.00012932     1.18400
C527        C  0.50884449  0.89400259  0.56927106     0.97000
C528        C  0.10369703  0.98810393  0.57115203     0.97700
N529        N  0.44845074  0.50110585  0.94161229    -0.07500
N530        N  0.42876301  0.99371865  0.91951811    -0.63800
N531        N  0.48163110  0.56675546  0.96392393    -0.06300
N532        N  0.47911491  0.59786538  0.95751090    -0.64500
N533        N  0.49728655  0.54994788  0.94169276    -0.07000
N534        N  0.00506664  0.56930078  0.91958718    -0.64100
N535        N  0.43202675  0.51799474  0.96339108    -0.05900
N536        N  0.40104834  0.52219535  0.95667060    -0.64800
Mn537      Mn  0.50166966  0.99685298  0.94087062     1.10700
C538        C  0.39941885  0.50680869  0.92940409     0.98200
C539        C  0.99392675  0.59925633  0.92977762     0.98300
N540        N  0.49712751  0.54979684  0.55861190    -0.07000
N541        N  0.00532580  0.56927933  0.58054918    -0.62400
N542        N  0.43143374  0.51709095  0.53604198    -0.06300
N543        N  0.40020953  0.51913578  0.54171785    -0.59100
N544        N  0.44789227  0.50048617  0.55786698    -0.07600
N545        N  0.42813027  0.99114715  0.57892065    -0.61900
N546        N  0.48050997  0.56646713  0.53695000    -0.06600
N547        N  0.47698818  0.59752570  0.54373521    -0.59100
Mn548      Mn  0.00121385  0.49652666  0.55918926     1.20200
Mn549      Mn  0.45580421  0.54274597  0.50011243     1.10100
Cl550      Cl  0.00162249  0.49680729  0.50008070    -0.87100
C551        C  0.99274104  0.59895645  0.57082620     0.95200
C552        C  0.39848260  0.50257167  0.56835198     0.95000
C553        C  0.00424349  0.77444195  0.63504852     0.79100
N554        N  0.00614601  0.77437293  0.66640819    -0.79200
C555        C  0.00568875  0.74650016  0.68244949     0.81500
N556        N  0.00341349  0.71865446  0.66685028    -0.79200
C557        C  0.00115863  0.71860078  0.63558176     0.81600
N558        N  0.00161002  0.74652029  0.61965463    -0.80900
C559        C  0.00875699  0.77416349  0.86355603     0.79100
N560        N  0.00734435  0.74621234  0.87919211    -0.79200
C561        C  0.00629204  0.71814916  0.86349669     0.81500
N562        N  0.00685141  0.71823604  0.83210861    -0.79200
C563        C  0.00823478  0.74611912  0.81634994     0.81600
N564        N  0.00897343  0.77406349  0.83220618    -0.80900
C565        C  0.22231300  0.99759336  0.63740308     0.79100
N566        N  0.22340112  0.99616068  0.66874583    -0.79200
C567        C  0.25190710  0.99574219  0.68375974     0.81500
N568        N  0.27943166  0.99638906  0.66726234    -0.79200
C569        C  0.27870353  0.99834868  0.63587488     0.81600
N570        N  0.24989895  0.99911606  0.62111609    -0.80900
C571        C  0.22326858  0.99897652  0.86412937     0.79100
N572        N  0.25095643  0.00087962  0.88007858    -0.79200
C573        C  0.27932960  0.00145378  0.86485921     0.81500
N574        N  0.27992476  0.99999751  0.83349913    -0.79200
C575        C  0.25245279  0.99827510  0.81733487     0.81600
N576        N  0.22413871  0.99785111  0.83268615    -0.80900
C577        C  0.26614209  0.96895877  0.73459829    -0.03000
C578        C  0.25273885  0.99630567  0.71791402     0.06700
C579        C  0.24056054  0.52439658  0.73394286    -0.03100
C580        C  0.24121058  0.52517873  0.76647252    -0.03100
C581        C  0.25329472  0.99768070  0.78317475     0.06800
C582        C  0.26651391  0.96967670  0.76719557    -0.03300
Br583      Br  0.28518510  0.93238529  0.79001439    -0.01800
Br584      Br  0.28306595  0.93026651  0.71273499    -0.01900
Br585      Br  0.22755759  0.56485251  0.78823154    -0.01900
Br586      Br  0.22387498  0.56248197  0.71118949    -0.01900
C587        C  0.03109643  0.75985982  0.73278962    -0.03000
C588        C  0.00651575  0.74652106  0.71672857     0.06700
C589        C  0.98249526  0.73317817  0.73360958    -0.03100
C590        C  0.98300854  0.73325870  0.76613421    -0.03100
C591        C  0.00776462  0.74625631  0.78213929     0.06800
C592        C  0.03174737  0.75968311  0.76534912    -0.03300
Br593      Br  0.06647148  0.77667215  0.78679151    -0.01800
Br594      Br  0.06506218  0.77696205  0.71048349    -0.01900
Br595      Br  0.94833470  0.71746836  0.78868190    -0.01900
Br596      Br  0.94762305  0.71617290  0.71246220    -0.01900
C597        C  0.02687621  0.66103383  0.87710091    -0.03000
C598        C  0.00320272  0.68786453  0.88035163     0.06700
C599        C  0.47602776  0.68541458  0.89895103    -0.03100
C600        C  0.47256334  0.65641140  0.91449788    -0.03100
C601        C  0.99691939  0.62967154  0.91238017     0.06800
C602        C  0.02408149  0.63223137  0.89326673    -0.03300
Br603      Br  0.05878381  0.59726092  0.88967134    -0.01800
Br604      Br  0.06392860  0.66415746  0.85112217    -0.01900
Br605      Br  0.43284979  0.65340525  0.93651685    -0.01900
Br606      Br  0.44242027  0.72150190  0.90171882    -0.01900
C607        C  0.03813742  0.81205244  0.89381799    -0.03000
C608        C  0.00935098  0.80474249  0.88041995     0.06700
C609        C  0.48138802  0.82708458  0.88219543    -0.03100
C610        C  0.48191282  0.85653330  0.89799485    -0.03100
C611        C  0.01064789  0.86384608  0.91197525     0.06800
C612        C  0.03893092  0.84156448  0.90937429    -0.03300
Br613      Br  0.07956453  0.85191059  0.92517191    -0.01800
Br614      Br  0.07675976  0.78183438  0.88990772    -0.01900
Br615      Br  0.44263794  0.88587144  0.90149098    -0.01900
Br616      Br  0.44211437  0.81677009  0.86344358    -0.01900
C617        C  0.46853554  0.67928719  0.61100177    -0.03000
C618        C  0.99885018  0.68810428  0.61909985     0.06700
C619        C  0.02701277  0.66735727  0.61215734    -0.03100
C620        C  0.02503101  0.63826350  0.59627692    -0.03100
C621        C  0.99479832  0.62925157  0.58812768     0.06800
C622        C  0.46646969  0.64969811  0.59593061    -0.03300
Br623      Br  0.42478427  0.63639268  0.58767745    -0.01800
Br624      Br  0.42995187  0.70758354  0.62104282    -0.01900
Br625      Br  0.06390627  0.61183097  0.58419670    -0.01900
Br626      Br  0.06832975  0.67902685  0.62444494    -0.00600
C627        C  0.47677504  0.82176408  0.60585513    -0.03000
C628        C  0.00529884  0.80477539  0.61786488     0.06700
C629        C  0.03476745  0.81723102  0.61404604    -0.03100
C630        C  0.03569573  0.84678022  0.59877092    -0.03100
C631        C  0.00728476  0.86376916  0.58665109     0.06800
C632        C  0.47774703  0.85129827  0.59037512    -0.03300
Br633      Br  0.43882001  0.87428595  0.57366339    -0.01800
Br634      Br  0.43651868  0.80441615  0.61069560    -0.01900
Br635      Br  0.07575504  0.86473126  0.59580834    -0.01900
Br636      Br  0.07413412  0.79316560  0.62864251    -0.01900
C637        C  0.34963069  0.98120064  0.91994850    -0.03000
C638        C  0.36898148  0.00529769  0.91258024     0.06700
C639        C  0.35849909  0.52874202  0.89035946    -0.03100
C640        C  0.32882225  0.52788392  0.87523245    -0.03100
C641        C  0.30958599  0.00342469  0.88212728     0.06800
C642        C  0.32002808  0.98016840  0.90478000    -0.03300
Br643      Br  0.29458897  0.94604438  0.91439646    -0.01800
Br644      Br  0.36403889  0.94945841  0.95081000    -0.01900
Br645      Br  0.31366882  0.56162021  0.84641556    -0.01900
Br646      Br  0.38453896  0.56251338  0.88119809    -0.01900
C647        C  0.17534854  0.97052420  0.87652296    -0.03000
C648        C  0.19253125  0.99719353  0.88096408     0.06700
C649        C  0.18048879  0.52168021  0.90188128    -0.03100
C650        C  0.15153149  0.51961400  0.91809557    -0.03100
C651        C  0.13430570  0.99319758  0.91339111     0.06800
C652        C  0.14625117  0.96869805  0.89250907    -0.03300
Br653      Br  0.12269793  0.93241238  0.88609099    -0.01800
Br654      Br  0.19262852  0.93532034  0.85006938    -0.01900
Br655      Br  0.13533597  0.55291661  0.94702158    -0.01900
Br656      Br  0.20294935  0.55883116  0.90767933    -0.01900
C657        C  0.36210020  0.51871930  0.61308417    -0.03000
C658        C  0.36812585  0.00095732  0.58562041     0.06700
C659        C  0.34470598  0.98256558  0.57426506    -0.03100
C660        C  0.31548727  0.98165095  0.59042053    -0.03100
C661        C  0.30920291  0.99968067  0.61807312     0.06800
C662        C  0.33271128  0.51851572  0.62900802    -0.03300
Br663      Br  0.32435837  0.54642580  0.66452885    -0.01800
Br664      Br  0.39392952  0.54456086  0.62823969    -0.01900
Br665      Br  0.28517654  0.95426170  0.57483866    -0.01900
Br666      Br  0.35339370  0.95751146  0.53704912    -0.01900
C667        C  0.14880043  0.96418279  0.60539080    -0.03000
C668        C  0.13380715  0.99067176  0.58847977     0.06700
C669        C  0.14793972  0.51947879  0.58782850    -0.03100
C670        C  0.17641868  0.52209950  0.60451125    -0.03100
C671        C  0.19157337  0.99557327  0.62105729     0.06800
C672        C  0.17761767  0.96657489  0.62157084    -0.03300
Br673      Br  0.19853103  0.92977364  0.64378910    -0.01800
Br674      Br  0.12994252  0.92453222  0.60633180    -0.01900
Br675      Br  0.19393108  0.56258525  0.60577442    -0.01900
Br676      Br  0.12923647  0.55469255  0.56253461    -0.01900
N677        N  0.55495046  0.49312562  0.44196533    -0.07300
N678        N  0.57452605  0.00238368  0.42062133    -0.59400
N679        N  0.52250363  0.42714878  0.46368898    -0.06900
N680        N  0.52621933  0.39608393  0.45708986    -0.61500
N681        N  0.50613204  0.44359332  0.44171094    -0.06500
N682        N  0.99878783  0.42391278  0.41957479    -0.59300
N683        N  0.57166224  0.47649157  0.46365507    -0.06200
N684        N  0.60278729  0.47411912  0.45740027    -0.61900
C685        C  0.60416541  0.49067787  0.43071129     0.94900
C686        C  0.01127346  0.39429825  0.42960400     0.94700
N687        N  0.50516551  0.44324616  0.05783399    -0.07400
N688        N  0.99612757  0.42361843  0.07917263    -0.59900
N689        N  0.57150836  0.47574982  0.03706762    -0.05600
N690        N  0.60247635  0.47215672  0.04405083    -0.61200
N691        N  0.55466362  0.49246643  0.05871231    -0.07500
N692        N  0.57399510  0.00079041  0.08069787    -0.60200
N693        N  0.52244590  0.42674858  0.03638040    -0.05200
N694        N  0.52564063  0.39562743  0.04275826    -0.61300
Mn695      Mn  0.54767527  0.45099196  0.50013889     1.18400
C696        C  0.00884525  0.39401477  0.06928100     0.97000
C697        C  0.60369844  0.48809035  0.07114887     0.97700
N698        N  0.94846004  0.00109749  0.44161702    -0.07500
N699        N  0.92876943  0.49373115  0.41950111    -0.63800
N700        N  0.98163795  0.06675181  0.46392447    -0.06300
N701        N  0.97912482  0.09786102  0.45750910    -0.64500
N702        N  0.99728963  0.04994270  0.44169282    -0.07000
N703        N  0.50508379  0.06929767  0.41958421    -0.64100
N704        N  0.93203218  0.01798462  0.46339442    -0.05900
N705        N  0.90105246  0.02216798  0.45667725    -0.64800
Mn706      Mn  0.00167492  0.49685950  0.44086289     1.10700
C707        C  0.89942764  0.00677269  0.42941404     0.98200
C708        C  0.49393896  0.09925201  0.42977506     0.98300
N709        N  0.99713579  0.04980891  0.05860599    -0.07000
N710        N  0.50533162  0.06926413  0.08056189    -0.62400
N711        N  0.93144161  0.01709676  0.03603826    -0.06300
N712        N  0.90021691  0.01912373  0.04170595    -0.59100
N713        N  0.94790244  0.00049076  0.05786072    -0.07600
N714        N  0.92813391  0.49115871  0.07894289    -0.61900
N715        N  0.98051219  0.06647866  0.03694776    -0.06600
N716        N  0.97699401  0.09753788  0.04373053    -0.59100
Mn717      Mn  0.50122211  0.99651219  0.05919748     1.20200
Mn718      Mn  0.95580644  0.04275757  0.00011122     1.10100
Cl719      Cl  0.50162306  0.99679626  0.00008846    -0.87100
C720        C  0.49274815  0.09894185  0.07083903     0.95200
C721        C  0.89849202  0.00254652  0.06833253     0.95000
C722        C  0.50420720  0.27444352  0.13504613     0.79100
N723        N  0.50611393  0.27437593  0.16640587    -0.79200
C724        C  0.50566343  0.24650280  0.18244855     0.81500
N725        N  0.50339245  0.21865583  0.16685052    -0.79200
C726        C  0.50113220  0.21860056  0.13558264     0.81600
N727        N  0.50157648  0.24652014  0.11965392    -0.80900
C728        C  0.50873959  0.27415950  0.36355423     0.79100
N729        N  0.50732870  0.24620919  0.37919191    -0.79200
C730        C  0.50628448  0.21814441  0.36349792     0.81500
N731        N  0.50685053  0.21822777  0.33210999    -0.79200
C732        C  0.50822959  0.24611065  0.31634961     0.81600
N733        N  0.50896066  0.27405689  0.33220442    -0.80900
C734        C  0.72231499  0.49755266  0.13741450     0.79100
N735        N  0.72339800  0.49612080  0.16875747    -0.79200
C736        C  0.75190079  0.49570846  0.18377609     0.81500
N737        N  0.77942742  0.49636208  0.16728352    -0.79200
C738        C  0.77870460  0.49832033  0.13589606     0.81600
N739        N  0.74990318  0.49908094  0.12113203    -0.80900
C740        C  0.72326514  0.49897045  0.36414795     0.79100
N741        N  0.75095326  0.50088214  0.38009386    -0.79200
C742        C  0.77932409  0.50145488  0.36487012     0.81500
N743        N  0.77991642  0.49999003  0.33351042    -0.79200
C744        C  0.75244378  0.49825819  0.31735028     0.81600
N745        N  0.72413207  0.49783422  0.33270520    -0.80900
C746        C  0.76613145  0.46893011  0.23461758    -0.03000
C747        C  0.75272668  0.49627431  0.21793030     0.06700
C748        C  0.74059046  0.02433253  0.23392531    -0.03100
C749        C  0.74124000  0.02511768  0.26645492    -0.03100
C750        C  0.75328169  0.49765744  0.28319054     0.06800
C751        C  0.76650290  0.46965209  0.26721473    -0.03300
Br752      Br  0.78517586  0.43236441  0.29003798    -0.01800
Br753      Br  0.78305879  0.43023633  0.21275848    -0.01900
Br754      Br  0.72760698  0.06479866  0.28820962    -0.01900
Br755      Br  0.72392258  0.06242141  0.21116826    -0.01900
C756        C  0.53107125  0.25987173  0.23278677    -0.03000
C757        C  0.50649570  0.24652229  0.21672783     0.06700
C758        C  0.48248774  0.23316197  0.23361125    -0.03100
C759        C  0.48300774  0.23323651  0.26613574    -0.03100
C760        C  0.50775745  0.24624701  0.28213874     0.06800
C761        C  0.53172824  0.25969046  0.26534630    -0.03300
Br762      Br  0.56644502  0.27669655  0.28678505    -0.01800
Br763      Br  0.56502302  0.27699451  0.21047770    -0.01900
Br764      Br  0.44835019  0.21741917  0.28868610    -0.01900
Br765      Br  0.44762197  0.21614029  0.21246810    -0.01900
C766        C  0.52690066  0.16104925  0.37713728    -0.03000
C767        C  0.50320011  0.18786098  0.38035411     0.06700
C768        C  0.97606023  0.18543678  0.39899673    -0.03100
C769        C  0.97259841  0.15643504  0.41454748    -0.03100
C770        C  0.49692645  0.12966704  0.41237933     0.06800
C771        C  0.52411089  0.13224681  0.39330394    -0.03300
Br772      Br  0.55884882  0.09730536  0.38977076    -0.01800
Br773      Br  0.56398117  0.16420166  0.35120587    -0.01900
Br774      Br  0.93292976  0.15348005  0.43666147    -0.01900
Br775      Br  0.94249093  0.22155323  0.40183854    -0.01900
C776        C  0.53810751  0.31201151  0.39387465    -0.03000
C777        C  0.50933667  0.30473844  0.38041677     0.06700
C778        C  0.98137210  0.32706103  0.38224916    -0.03100
C779        C  0.98189642  0.35651026  0.39804812    -0.03100
C780        C  0.51064290  0.36383857  0.41197574     0.06800
C781        C  0.53890770  0.34152342  0.40942861    -0.03300
Br782      Br  0.57953313  0.35182132  0.42529153    -0.01800
Br783      Br  0.57670419  0.28174442  0.39004573    -0.01900
Br784      Br  0.94260797  0.38581858  0.40160398    -0.01900
Br785      Br  0.94208149  0.31671300  0.36355747    -0.01900
C786        C  0.96856704  0.17926795  0.11104993    -0.03000
C787        C  0.49883251  0.18810055  0.11910382     0.06700
C788        C  0.52699673  0.16733676  0.11220603    -0.03100
C789        C  0.52502433  0.13823580  0.09633451    -0.03100
C790        C  0.49479709  0.12923722  0.08814402     0.06800
C791        C  0.96649644  0.14968246  0.09597410    -0.03300
Br792      Br  0.92481195  0.13634581  0.08778451    -0.01800
Br793      Br  0.92998400  0.20753280  0.12116093    -0.01900
Br794      Br  0.56390896  0.11177306  0.08432870    -0.01900
Br795      Br  0.56830403  0.17899685  0.12453804    -0.00600
C796        C  0.97679505  0.32177095  0.10587381    -0.03000
C797        C  0.50526854  0.30477449  0.11785932     0.06700
C798        C  0.53474230  0.31721816  0.11403209    -0.03100
C799        C  0.53567870  0.34676354  0.09875204    -0.03100
C800        C  0.50727027  0.36376076  0.08663526     0.06800
C801        C  0.97775778  0.35130943  0.09039919    -0.03300
Br802      Br  0.93882077  0.37430182  0.07371271    -0.01800
Br803      Br  0.93654242  0.30441961  0.11073081    -0.01900
Br804      Br  0.57574640  0.36469796  0.09577904    -0.01900
Br805      Br  0.57410453  0.29314124  0.12862508    -0.01900
C806        C  0.84965176  0.48120040  0.41992552    -0.03000
C807        C  0.86898753  0.50531155  0.41256214     0.06700
C808        C  0.85855272  0.02865409  0.39030866    -0.03100
C809        C  0.82888122  0.02779370  0.37517227    -0.03100
C810        C  0.80958175  0.50343224  0.38213213     0.06800
C811        C  0.82004283  0.48016636  0.40476967    -0.03300
Br812      Br  0.79461821  0.44603067  0.41438449    -0.01800
Br813      Br  0.86408834  0.44944336  0.45076480    -0.01900
Br814      Br  0.81378416  0.06148180  0.34628562    -0.01900
Br815      Br  0.88464018  0.06237087  0.38108802    -0.01900
C816        C  0.67537731  0.47049098  0.37658187    -0.03000
C817        C  0.69253137  0.49718601  0.38098525     0.06700
C818        C  0.68054000  0.02163242  0.40191089    -0.03100
C819        C  0.65158532  0.01957192  0.41813211    -0.03100
C820        C  0.63430846  0.49318852  0.41341325     0.06800
C821        C  0.64628184  0.46866244  0.39256960    -0.03300
Br822      Br  0.62276436  0.43234312  0.38619826    -0.01800
Br823      Br  0.69269324  0.43526229  0.35017406    -0.01900
Br824      Br  0.63543760  0.05284289  0.44710883    -0.01900
Br825      Br  0.70303889  0.05875145  0.40774887    -0.01900
C826        C  0.86211679  0.01866111  0.11307588    -0.03000
C827        C  0.86812924  0.50095200  0.08565044     0.06700
C828        C  0.84472640  0.48253298  0.07430699    -0.03100
C829        C  0.81550656  0.48161280  0.09045896    -0.03100
C830        C  0.80920636  0.49965795  0.11809979     0.06800
C831        C  0.83273197  0.01844550  0.12900321    -0.03300
Br832      Br  0.82438821  0.04633085  0.16454281    -0.01800
Br833      Br  0.89394567  0.04449780  0.12824174    -0.01900
Br834      Br  0.78521595  0.45419435  0.07489156    -0.01900
Br835      Br  0.85344284  0.45744422  0.03711673    -0.01900
C836        C  0.64879980  0.46415568  0.10538541    -0.03000
C837        C  0.63380944  0.49065029  0.08847984     0.06700
C838        C  0.64795374  0.01945103  0.08782464    -0.03100
C839        C  0.67643621  0.02206332  0.10450457    -0.03100
C840        C  0.69157621  0.49553750  0.12106409     0.06800
C841        C  0.67761650  0.46654108  0.12156967    -0.03300
Br842      Br  0.69852203  0.42973462  0.14378526    -0.01800
Br843      Br  0.62993874  0.42450635  0.10631210    -0.01900
Br844      Br  0.69395579  0.06254488  0.10577351    -0.01900
Br845      Br  0.62924813  0.05467446  0.06254267    -0.01900
N846        N  0.55501730  0.49308799  0.94198733    -0.07300
N847        N  0.57444335  0.00240529  0.92060283    -0.59400
N848        N  0.52253028  0.42712311  0.96368546    -0.06900
N849        N  0.52623111  0.39605768  0.95708950    -0.61500
N850        N  0.50618814  0.44357330  0.94169334    -0.06500
N851        N  0.99883380  0.42391744  0.91955449    -0.59300
N852        N  0.57170956  0.47644726  0.96368555    -0.06200
N853        N  0.60283739  0.47404382  0.95743917    -0.61900
C854        C  0.60423861  0.49059068  0.93074676     0.94900
C855        C  0.01127546  0.39429472  0.92959589     0.94700
N856        N  0.50517984  0.44326806  0.55784440    -0.07400
N857        N  0.99611466  0.42360954  0.57916320    -0.59900
N858        N  0.57149938  0.47579690  0.53703884    -0.05600
N859        N  0.60246858  0.47219428  0.54401546    -0.61200
N860        N  0.55466249  0.49250689  0.55869299    -0.07500
N861        N  0.57399124  0.00080781  0.58069725    -0.60200
N862        N  0.52245775  0.42677294  0.53638764    -0.05200
N863        N  0.52564848  0.39564986  0.54276067    -0.61300
Mn864      Mn  0.54769264  0.45095649  0.00015105     1.18400
C865        C  0.00883214  0.39400746  0.56926656     0.97000
C866        C  0.60370088  0.48811874  0.57111684     0.97700
N867        N  0.94837821  0.00113463  0.94165135    -0.07500
N868        N  0.92884090  0.49365549  0.91949085    -0.63800
N869        N  0.98156283  0.06679049  0.96393790    -0.06300
N870        N  0.97903471  0.09790095  0.95752464    -0.64500
N871        N  0.99720581  0.04998485  0.94169786    -0.07000
N872        N  0.50502351  0.06931079  0.91961602    -0.64100
N873        N  0.93196932  0.01802895  0.96343618    -0.05900
N874        N  0.90099180  0.02226953  0.95671420    -0.64800
Mn875      Mn  0.00172585  0.49684863  0.94085415     1.10700
C876        C  0.89934525  0.00690075  0.92944136     0.98200
C877        C  0.49388292  0.09926392  0.92981208     0.98300
N878        N  0.99714065  0.04977881  0.55860250    -0.07000
N879        N  0.50532796  0.06926672  0.58054576    -0.62400
N880        N  0.93144766  0.01708693  0.53600748    -0.06300
N881        N  0.90022168  0.01916528  0.54168678    -0.59100
N882        N  0.94789290  0.00048524  0.55784296    -0.07600
N883        N  0.92812405  0.49109859  0.57892299    -0.61900
N884        N  0.98053879  0.06644798  0.53692998    -0.06600
N885        N  0.97701829  0.09750724  0.54371037    -0.59100
Mn886      Mn  0.50122758  0.99651594  0.55917877     1.20200
Mn887      Mn  0.95584633  0.04272774  0.50008335     1.10100
Cl888      Cl  0.50166021  0.99679005  0.50006944    -0.87100
C889        C  0.49275485  0.09894455  0.57081432     0.95200
C890        C  0.89848004  0.00262441  0.56833301     0.95000
C891        C  0.50413381  0.27446217  0.63504421     0.79100
N892        N  0.50606413  0.27437969  0.66640435    -0.79200
C893        C  0.50562872  0.24649719  0.68243797     0.81500
N894        N  0.50335588  0.21865720  0.66682950    -0.79200
C895        C  0.50107186  0.21861613  0.63556335     0.81600
N896        N  0.50149897  0.24654395  0.61964424    -0.80900
C897        C  0.50874048  0.27412947  0.86354423     0.79100
N898        N  0.50731525  0.24618703  0.87919090    -0.79200
C899        C  0.50628384  0.21811515  0.86350650     0.81500
N900        N  0.50687555  0.21818130  0.83211868    -0.79200
C901        C  0.50826107  0.24605741  0.81634752     0.81600
N902        N  0.50898204  0.27401131  0.83219371    -0.80900
C903        C  0.72233569  0.49736491  0.63741096     0.79100
N904        N  0.72342803  0.49587876  0.66875100    -0.79200
C905        C  0.75193781  0.49542578  0.68376509     0.81500
N906        N  0.77946047  0.49609389  0.66726930    -0.79200
C907        C  0.77872653  0.49810676  0.63588486     0.81600
N908        N  0.74991872  0.49890978  0.62112775    -0.80900
C909        C  0.72334673  0.49872035  0.86415004     0.79100
N910        N  0.75104236  0.50064300  0.88007947    -0.79200
C911        C  0.77941211  0.50117572  0.86484360     0.81500
N912        N  0.77999244  0.49966309  0.83348551    -0.79200
C913        C  0.75251119  0.49792914  0.81734010     0.81600
N914        N  0.72420200  0.49754487  0.83270848    -0.80900
C915        C  0.76619128  0.46862799  0.73459613    -0.03000
C916        C  0.75276981  0.49597345  0.71791959     0.06700
C917        C  0.74054109  0.02461784  0.73393080    -0.03100
C918        C  0.74118456  0.02540709  0.76646118    -0.03100
C919        C  0.75333102  0.49733097  0.78318024     0.06800
C920        C  0.76656388  0.46933656  0.76719400    -0.03300
Br921      Br  0.78525008  0.43204497  0.79000383    -0.01800
Br922      Br  0.78314484  0.42995293  0.71272184    -0.01900
Br923      Br  0.72754437  0.06508848  0.78821128    -0.01900
Br924      Br  0.72386325  0.06269809  0.71116686    -0.01900
C925        C  0.53106454  0.25984393  0.73277334    -0.03000
C926        C  0.50648602  0.24649359  0.71671941     0.06700
C927        C  0.48250492  0.23309802  0.73361039    -0.03100
C928        C  0.48304613  0.23315191  0.76613544    -0.03100
C929        C  0.50778720  0.24618332  0.78213385     0.06800
C930        C  0.53173859  0.25964978  0.76533356    -0.03300
Br931      Br  0.56645397  0.27666986  0.78676173    -0.01800
Br932      Br  0.56500291  0.27697762  0.71045483    -0.01900
Br933      Br  0.44842649  0.21727290  0.78869266    -0.01900
Br934      Br  0.44764568  0.21605147  0.71247857    -0.01900
C935        C  0.52693929  0.16106449  0.87726190    -0.03000
C936        C  0.50318472  0.18784335  0.88037356     0.06700
C937        C  0.97587897  0.18542258  0.89890931    -0.03100
C938        C  0.97242583  0.15642077  0.91446289    -0.03100
C939        C  0.49689013  0.12967423  0.91242373     0.06800
C940        C  0.52414219  0.13227830  0.89345150    -0.03300
Br941      Br  0.55896121  0.09739664  0.89011638    -0.01800
Br942      Br  0.56409189  0.16424035  0.85143810    -0.01900
Br943      Br  0.93269402  0.15337460  0.93643601    -0.01900
Br944      Br  0.94223919  0.22148416  0.90162866    -0.01900
C945        C  0.53808620  0.31191485  0.89397507    -0.03000
C946        C  0.50934647  0.30471357  0.88039946     0.06700
C947        C  0.98134919  0.32719066  0.88206215    -0.03100
C948        C  0.98190398  0.35662723  0.89787583    -0.03100
C949        C  0.51067572  0.36381465  0.91195898     0.06800
C950        C  0.53890190  0.34142943  0.90952061    -0.03300
Br951      Br  0.57951083  0.35162934  0.92551397    -0.01800
Br952      Br  0.57662764  0.28154461  0.89031730    -0.01900
Br953      Br  0.94268996  0.38607948  0.90121683    -0.01900
Br954      Br  0.94210700  0.31701250  0.86314266    -0.01900
C955        C  0.96850816  0.17928616  0.61094191    -0.03000
C956        C  0.49878860  0.18811712  0.61907622     0.06700
C957        C  0.52695546  0.16731972  0.61226572    -0.03100
C958        C  0.52500160  0.13820856  0.59640492    -0.03100
C959        C  0.49478556  0.12924169  0.58812440     0.06800
C960        C  0.96645799  0.14969267  0.59587395    -0.03300
Br961      Br  0.92477951  0.13639397  0.58756968    -0.01800
Br962      Br  0.92991426  0.20759113  0.62093091    -0.01900
Br963      Br  0.56390487  0.11168133  0.58455261    -0.01900
Br964      Br  0.56824350  0.17895557  0.62469189    -0.00600
C965        C  0.97672836  0.32177584  0.60583568    -0.03000
C966        C  0.50521206  0.30479522  0.61786035     0.06700
C967        C  0.53469655  0.31721862  0.61403404    -0.03100
C968        C  0.53565488  0.34676056  0.59875296    -0.03100
C969        C  0.50725860  0.36377500  0.58662941     0.06800
C970        C  0.97771458  0.35130971  0.59035785    -0.03300
Br971      Br  0.93879637  0.37431407  0.57364544    -0.01800
Br972      Br  0.93646267  0.30444444  0.61067031    -0.01900
Br973      Br  0.57573781  0.36466422  0.59578682    -0.01900
Br974      Br  0.57404648  0.29311069  0.62861775    -0.01900
C975        C  0.84965936  0.48111819  0.92003954    -0.03000
C976        C  0.86905736  0.50513849  0.91255094     0.06700
C977        C  0.85838060  0.02894858  0.89048257    -0.03100
C978        C  0.82870780  0.02810480  0.87534358    -0.03100
C979        C  0.80967617  0.50318221  0.88209223     0.06800
C980        C  0.82006407  0.48004388  0.90486991    -0.03300
Br981      Br  0.79456886  0.44601145  0.91465860    -0.01800
Br982      Br  0.86401148  0.44951396  0.95104231    -0.01900
Br983      Br  0.81350598  0.06192246  0.84662875    -0.01900
Br984      Br  0.88436237  0.06280246  0.88145301    -0.01900
C985        C  0.67542509  0.47030235  0.87661218    -0.03000
C986        C  0.69261589  0.49697359  0.88100434     0.06700
C987        C  0.68046232  0.02173079  0.90196142    -0.03100
C988        C  0.65151318  0.01962790  0.91817782    -0.03100
C989        C  0.63438977  0.49305461  0.91344984     0.06800
C990        C  0.64632755  0.46851374  0.89260806    -0.03300
Br991      Br  0.62276078  0.43222581  0.88625571    -0.01800
Br992      Br  0.69269267  0.43504794  0.85021216    -0.01900
Br993      Br  0.63538086  0.05281761  0.94724241    -0.01900
Br994      Br  0.70296039  0.05883621  0.90789128    -0.01900
C995        C  0.86207785  0.01886801  0.61302961    -0.03000
C996        C  0.86811803  0.50084825  0.58561620     0.06700
C997        C  0.84468777  0.48249370  0.57421652    -0.03100
C998        C  0.81548344  0.48152760  0.59038264    -0.03100
C999        C  0.80921828  0.49947958  0.61808325     0.06800
C1000       C  0.83268779  0.01868489  0.62895715    -0.03300
Br1001     Br  0.82431421  0.04666215  0.66442718    -0.01800
Br1002     Br  0.89389201  0.04475668  0.62812977    -0.01900
Br1003     Br  0.78516633  0.45417423  0.57474506    -0.01900
Br1004     Br  0.85333459  0.45756913  0.53691621    -0.01900
C1005       C  0.64879927  0.46408455  0.60530105    -0.03000
C1006       C  0.63381302  0.49062881  0.58846067     0.06700
C1007       C  0.64794832  0.01951709  0.58775647    -0.03100
C1008       C  0.67642002  0.02217781  0.60443785    -0.03100
C1009       C  0.69158985  0.49540689  0.62105981     0.06800
C1010       C  0.67762138  0.46641550  0.62149251    -0.03300
Br1011     Br  0.69852684  0.42954111  0.64361037    -0.01800
Br1012     Br  0.62992463  0.42444185  0.60612962    -0.01900
Br1013     Br  0.69392812  0.06266772  0.60561596    -0.01900
Br1014     Br  0.62924773  0.05467255  0.56238534    -0.01900
N1015       N  0.55502351  0.99310222  0.44198148    -0.07300
N1016       N  0.57443873  0.50242403  0.42060065    -0.59400
N1017       N  0.52254268  0.92713070  0.46368299    -0.06900
N1018       N  0.52623271  0.89606376  0.45709284    -0.61500
N1019       N  0.50619845  0.94358036  0.44169219    -0.06500
N1020       N  0.99884620  0.92389979  0.41956199    -0.59300
N1021       N  0.57171886  0.97645943  0.46367632    -0.06200
N1022       N  0.60284647  0.97406395  0.45742918    -0.61900
C1023       C  0.60424395  0.99061968  0.43074101     0.94900
C1024       C  0.01129108  0.89427795  0.42960381     0.94700
N1025       N  0.50517986  0.94325421  0.05784682    -0.07400
N1026       N  0.99614040  0.92361883  0.07915970    -0.59900
N1027       N  0.57150199  0.97578158  0.03704688    -0.05600
N1028       N  0.60247093  0.97217617  0.04402556    -0.61200
N1029       N  0.55466485  0.99249048  0.05870144    -0.07500
N1030       N  0.57398683  0.50078353  0.08070689    -0.60200
N1031       N  0.52245686  0.92676050  0.03638885    -0.05200
N1032       N  0.52564744  0.89563702  0.04275968    -0.61300
Mn1033     Mn  0.54770490  0.95096782  0.50014661     1.18400
C1034       C  0.00885726  0.89401758  0.06926050     0.97000
C1035       C  0.60370271  0.98809697  0.07112921     0.97700
N1036       N  0.94838861  0.50112539  0.44164034    -0.07500
N1037       N  0.92885164  0.99365639  0.41948890    -0.63800
N1038       N  0.98156907  0.56678115  0.46393407    -0.06300
N1039       N  0.97904286  0.59789117  0.45751776    -0.64500
N1040       N  0.99721865  0.54997353  0.44169893    -0.07000
N1041       N  0.50500708  0.56931553  0.41960272    -0.64100
N1042       N  0.93197511  0.51801829  0.46342334    -0.05900
N1043       N  0.90099850  0.52225495  0.45669782    -0.64800
Mn1044     Mn  0.00174111  0.99683345  0.44086088     1.10700
C1045       C  0.89935693  0.50688608  0.42942442     0.98200
C1046       C  0.49386774  0.59926889  0.42979925     0.98300
N1047       N  0.99713989  0.54979891  0.05859086    -0.07000
N1048       N  0.50533225  0.56925439  0.08054833    -0.62400
N1049       N  0.93144488  0.51709396  0.03601397    -0.06300
N1050       N  0.90022045  0.51916581  0.04169976    -0.59100
N1051       N  0.94789782  0.50049842  0.05784861    -0.07600
N1052       N  0.92814262  0.99109785  0.07893050    -0.61900
N1053       N  0.98052682  0.56646457  0.03692306    -0.06600
N1054       N  0.97700256  0.59752425  0.04370242    -0.59100
Mn1055     Mn  0.50122007  0.49650292  0.05918389     1.20200
Mn1056     Mn  0.95583249  0.54273695  0.00008209     1.10100
Cl1057     Cl  0.50165227  0.49678127  0.00007431    -0.87100
C1058       C  0.49276082  0.59893272  0.07081657     0.95200
C1059       C  0.89848805  0.50262767  0.06834914     0.95000
C1060       C  0.50415457  0.77444482  0.13503993     0.79100
N1061       N  0.50606827  0.77436925  0.16640029    -0.79200
C1062       C  0.50562681  0.74649041  0.18243741     0.81500
N1063       N  0.50336189  0.71864650  0.16683260    -0.79200
C1064       C  0.50109457  0.71859876  0.13556530     0.81600
N1065       N  0.50152856  0.74652337  0.11964244    -0.80900
C1066       C  0.50868706  0.77414869  0.36354472     0.79100
N1067       N  0.50726687  0.74620329  0.37918752    -0.79200
C1068       C  0.50622788  0.71813497  0.36349937     0.81500
N1069       N  0.50680996  0.71820764  0.33211163    -0.79200
C1070       C  0.50819440  0.74608604  0.31634463     0.81600
N1071       N  0.50892087  0.77403679  0.33219432    -0.80900
C1072       C  0.72234290  0.99737007  0.13741043     0.79100
N1073       N  0.72343300  0.99590049  0.16875137    -0.79200
C1074       C  0.75194180  0.99545399  0.18376581     0.81500
N1075       N  0.77946556  0.99611217  0.16727001    -0.79200
C1076       C  0.77873480  0.99811002  0.13588488     0.81600
N1077       N  0.74992788  0.99890565  0.12112637    -0.80900
C1078       C  0.72335014  0.99876672  0.36414791     0.79100
N1079       N  0.75104425  0.00068642  0.38008092    -0.79200
C1080       C  0.77941521  0.00121988  0.36484712     0.81500
N1081       N  0.77999799  0.99971288  0.33348866    -0.79200
C1082       C  0.75251791  0.99798067  0.31734051     0.81600
N1083       N  0.72420780  0.99759308  0.33270645    -0.80900
C1084       C  0.76619156  0.96866547  0.23460050    -0.03000
C1085       C  0.75277411  0.99600960  0.21792010     0.06700
C1086       C  0.74054717  0.52460283  0.23392859    -0.03100
C1087       C  0.74119322  0.52539533  0.26645854    -0.03100
C1088       C  0.75334063  0.99737928  0.28318052     0.06800
C1089       C  0.76656703  0.96938011  0.26719805    -0.03300
Br1090     Br  0.78524863  0.93209002  0.29001239    -0.01800
Br1091     Br  0.78313579  0.92998385  0.21273147    -0.01900
Br1092     Br  0.72757228  0.56508329  0.28820518    -0.01900
Br1093     Br  0.72388059  0.56268461  0.21116129    -0.01900
C1094       C  0.53103491  0.75985495  0.23277925    -0.03000
C1095       C  0.50646547  0.74649773  0.21671820     0.06700
C1096       C  0.48247224  0.73311286  0.23360118    -0.03100
C1097       C  0.48299391  0.73318190  0.26612618    -0.03100
C1098       C  0.50772976  0.74621363  0.28213179     0.06800
C1099       C  0.53169173  0.75967199  0.26533942    -0.03300
Br1100     Br  0.56639827  0.77669562  0.28677859    -0.01800
Br1101     Br  0.56498332  0.77698441  0.21047137    -0.01900
Br1102     Br  0.44835535  0.71732471  0.28867264    -0.01900
Br1103     Br  0.44762418  0.71605992  0.21245759    -0.01900
C1104       C  0.52687324  0.66106851  0.37720722    -0.03000
C1105       C  0.50313845  0.68785868  0.38036272     0.06700
C1106       C  0.97591606  0.68541232  0.39890020    -0.03100
C1107       C  0.97245553  0.65641285  0.41445546    -0.03100
C1108       C  0.49686205  0.62968079  0.41240690     0.06800
C1109       C  0.52408371  0.63227614  0.39338936    -0.03300
Br1110     Br  0.55887271  0.59737300  0.38997317    -0.01800
Br1111     Br  0.56399433  0.66423788  0.35133743    -0.01900
Br1112     Br  0.93272137  0.65337863  0.43642845    -0.01900
Br1113     Br  0.94228310  0.72148048  0.40161633    -0.01900
C1114       C  0.53805179  0.81192527  0.39396481    -0.03000
C1115       C  0.50930330  0.80472784  0.38040447     0.06700
C1116       C  0.98138188  0.82715413  0.38208573    -0.03100
C1117       C  0.98192707  0.85659156  0.39790046    -0.03100
C1118       C  0.51065316  0.86382031  0.41197182     0.06800
C1119       C  0.53887707  0.84143485  0.40951621    -0.03300
Br1120     Br  0.57949453  0.85162804  0.42549407    -0.01800
Br1121     Br  0.57659193  0.78155800  0.39027550    -0.01900
Br1122     Br  0.94269942  0.88601925  0.40127015    -0.01900
Br1123     Br  0.94213691  0.81694943  0.36319189    -0.01900
C1124       C  0.96850414  0.67929564  0.11095106    -0.03000
C1125       C  0.49880794  0.68809907  0.11908120     0.06700
C1126       C  0.52697567  0.66732003  0.11223069    -0.03100
C1127       C  0.52501669  0.63821389  0.09636334    -0.03100
C1128       C  0.49479696  0.62922918  0.08812420     0.06800
C1129       C  0.96645317  0.64970368  0.09588019    -0.03300
Br1130     Br  0.92477547  0.63639233  0.08759963    -0.01800
Br1131     Br  0.92991018  0.70759074  0.12096129    -0.01900
Br1132     Br  0.56391350  0.61172238  0.08443617    -0.01900
Br1133     Br  0.56827043  0.67896976  0.12461685    -0.00600
C1134       C  0.97674206  0.82179310  0.10583061    -0.03000
C1135       C  0.50522858  0.80477693  0.11785521     0.06700
C1136       C  0.53471012  0.81720574  0.11402956    -0.03100
C1137       C  0.53566275  0.84674882  0.09874917    -0.03100
C1138       C  0.50726321  0.86375988  0.08662845     0.06800
C1139       C  0.97773347  0.85132530  0.09035142    -0.03300
Br1140     Br  0.93881828  0.87433583  0.07363891    -0.01800
Br1141     Br  0.93647244  0.80446960  0.11066645    -0.01900
Br1142     Br  0.57574166  0.86465987  0.09578198    -0.01900
Br1143     Br  0.57406220  0.79310782  0.12862108    -0.01900
C1144       C  0.84968193  0.98111951  0.42001169    -0.03000
C1145       C  0.86906766  0.00515779  0.41254706     0.06700
C1146       C  0.85840354  0.52891993  0.39044917    -0.03100
C1147       C  0.82872590  0.52808287  0.37531706    -0.03100
C1148       C  0.80967886  0.00321906  0.38209774     0.06800
C1149       C  0.82008297  0.98005378  0.40484582    -0.03300
Br1150     Br  0.79460166  0.94600087  0.41459973    -0.01800
Br1151     Br  0.86405025  0.94948677  0.45098429    -0.01900
Br1152     Br  0.81353761  0.56188947  0.34658573    -0.01900
Br1153     Br  0.88440507  0.56275027  0.38139172    -0.01900
C1154       C  0.67545950  0.97031876  0.37664214    -0.03000
C1155       C  0.69261860  0.99701747  0.38099803     0.06700
C1156       C  0.68044649  0.52176306  0.40193491    -0.03100
C1157       C  0.65149462  0.51966641  0.41814918    -0.03100
C1158       C  0.63439305  0.99309055  0.41344139     0.06800
C1159       C  0.64636336  0.96852419  0.39263846    -0.03300
Br1160     Br  0.62283765  0.93219940  0.38633117    -0.01800
Br1161     Br  0.69276813  0.93504267  0.35028683    -0.01900
Br1162     Br  0.63534017  0.55288520  0.44717570    -0.01900
Br1163     Br  0.70293185  0.55888205  0.40783307    -0.01900
C1164       C  0.86208724  0.51884979  0.11305390    -0.03000
C1165       C  0.86813539  0.00083890  0.08562589     0.06700
C1166       C  0.84470895  0.98247780  0.07422916    -0.03100
C1167       C  0.81550225  0.98151431  0.09039265    -0.03100
C1168       C  0.80922979  0.99947736  0.11808591     0.06800
C1169       C  0.83269471  0.51866369  0.12897713    -0.03300
Br1170     Br  0.82432157  0.54662860  0.16445622    -0.01800
Br1171     Br  0.89390465  0.54472558  0.12817088    -0.01900
Br1172     Br  0.78519264  0.95414862  0.07476361    -0.01900
Br1173     Br  0.85336366  0.95754343  0.03693543    -0.01900
C1174       C  0.64880315  0.96407607  0.10532040    -0.03000
C1175       C  0.63381598  0.99061307  0.08847061     0.06700
C1176       C  0.64793666  0.51949289  0.08777425    -0.03100
C1177       C  0.67640983  0.52215486  0.10445284    -0.03100
C1178       C  0.69159658  0.99540437  0.12106115     0.06800
C1179       C  0.67762644  0.96641393  0.12150833    -0.03300
Br1180     Br  0.69852903  0.92955129  0.14364493    -0.01800
Br1181     Br  0.62992824  0.92443399  0.10616672    -0.01900
Br1182     Br  0.69390005  0.56265356  0.10565303    -0.01900
Br1183     Br  0.62922469  0.55465379  0.06241752    -0.01900
N1184       N  0.55495401  0.99311576  0.94197108    -0.07300
N1185       N  0.57452274  0.50235828  0.92062426    -0.59400
N1186       N  0.52250347  0.92714224  0.96369198    -0.06900
N1187       N  0.52622701  0.89607858  0.95708841    -0.61500
N1188       N  0.50613631  0.94358738  0.94171152    -0.06500
N1189       N  0.99876399  0.92392306  0.91957893    -0.59300
N1190       N  0.57166441  0.97648161  0.96366183    -0.06200
N1191       N  0.60278932  0.97410120  0.95740463    -0.61900
C1192       C  0.60416887  0.99065353  0.93071228     0.94900
C1193       C  0.01125831  0.89430943  0.92960302     0.94700
N1194       N  0.50517695  0.94325958  0.55783149    -0.07400
N1195       N  0.99612248  0.92359735  0.57917522    -0.59900
N1196       N  0.57151683  0.97576861  0.53706036    -0.05600
N1197       N  0.60248487  0.97218218  0.54404287    -0.61200
N1198       N  0.55466992  0.99248463  0.55870412    -0.07500
N1199       N  0.57399340  0.50081053  0.58068699    -0.60200
N1200       N  0.52246070  0.92675997  0.53638127    -0.05200
N1201       N  0.52565276  0.89563903  0.54276171    -0.61300
Mn1202     Mn  0.54767585  0.95098159  0.00014349     1.18400
C1203       C  0.00884601  0.89399554  0.56928355     0.97000
C1204       C  0.60370401  0.98811979  0.57113906     0.97700
N1205       N  0.94844776  0.50110301  0.94161715    -0.07500
N1206       N  0.92875514  0.99374249  0.91951490    -0.63800
N1207       N  0.98161605  0.56676416  0.96391879    -0.06300
N1208       N  0.97910204  0.59787358  0.95750441    -0.64500
N1209       N  0.99726537  0.54995681  0.94168510    -0.07000
N1210       N  0.50509801  0.56929290  0.91959964    -0.64100
N1211       N  0.93201804  0.51798533  0.96339649    -0.05900
N1212       N  0.90103726  0.52215803  0.95668228    -0.64800
Mn1213     Mn  0.00166326  0.99687069  0.94086057     1.10700
C1214       C  0.89941512  0.50676150  0.92941888     0.98200
C1215       C  0.49395182  0.59924679  0.92979082     0.98300
N1216       N  0.99712375  0.54979701  0.55860489    -0.07000
N1217       N  0.50531538  0.56927873  0.58056318    -0.62400
N1218       N  0.93143010  0.51708963  0.53602705    -0.06300
N1219       N  0.90020472  0.51912410  0.54169441    -0.59100
N1220       N  0.94788689  0.50048397  0.55785235    -0.07600
N1221       N  0.92812186  0.99114827  0.57893197    -0.61900
N1222       N  0.98050183  0.56646783  0.53694603    -0.06600
N1223       N  0.97698604  0.59752716  0.54372821    -0.59100
Mn1224     Mn  0.50121992  0.49652651  0.55919336     1.20200
Mn1225     Mn  0.95580373  0.54274828  0.50010354     1.10100
Cl1226     Cl  0.50162104  0.49680586  0.50008404    -0.87100
C1227       C  0.49273101  0.59895631  0.57084018     0.95200
C1228       C  0.89847568  0.50255182  0.56832356     0.95000
C1229       C  0.50416931  0.77446615  0.63505779     0.79100
N1230       N  0.50609673  0.77438908  0.66641751    -0.79200
C1231       C  0.50565283  0.74651100  0.68245551     0.81500
N1232       N  0.50337160  0.71866963  0.66685201    -0.79200
C1233       C  0.50108892  0.71862352  0.63558579     0.81600
N1234       N  0.50152573  0.74654727  0.61966216    -0.80900
C1235       C  0.50878528  0.77413937  0.86356105     0.79100
N1236       N  0.50737104  0.74619265  0.87920415    -0.79200
C1237       C  0.50633929  0.71812302  0.86351510     0.81500
N1238       N  0.50691825  0.71819726  0.83212726    -0.79200
C1239       C  0.50829432  0.74607751  0.81636102     0.81600
N1240       N  0.50901541  0.77402838  0.83221105    -0.80900
C1241       C  0.72231292  0.99757727  0.63741523     0.79100
N1242       N  0.72339906  0.99614525  0.66875833    -0.79200
C1243       C  0.75190387  0.99573051  0.68377456     0.81500
N1244       N  0.77942927  0.99638162  0.66727877    -0.79200
C1245       C  0.77870244  0.99833891  0.63589100     0.81600
N1246       N  0.74989952  0.99910240  0.62113038    -0.80900
C1247       C  0.72326691  0.99896179  0.86414936     0.79100
N1248       N  0.75095444  0.00087298  0.88009605    -0.79200
C1249       C  0.77932399  0.00145647  0.86487343     0.81500
N1250       N  0.77991686  0.00000116  0.83351336    -0.79200
C1251       C  0.75244511  0.99826798  0.81735178     0.81600
N1252       N  0.72413392  0.99783491  0.83270606    -0.80900
C1253       C  0.76614944  0.96895383  0.73461547    -0.03000
C1254       C  0.75273285  0.99629480  0.71792969     0.06700
C1255       C  0.74057822  0.52429100  0.73392915    -0.03100
C1256       C  0.74122552  0.52507034  0.76645867    -0.03100
C1257       C  0.75328421  0.99767158  0.78319133     0.06800
C1258       C  0.76651898  0.96967274  0.76721298    -0.03300
Br1259     Br  0.78520648  0.93238886  0.79003355    -0.01800
Br1260     Br  0.78309528  0.93026753  0.71275433    -0.01900
Br1261     Br  0.72758374  0.56474593  0.78821898    -0.01900
Br1262     Br  0.72390250  0.56238150  0.71117827    -0.01900
C1263       C  0.53108695  0.75986810  0.73278765    -0.03000
C1264       C  0.50650815  0.74651525  0.71673626     0.06700
C1265       C  0.48252345  0.73312764  0.73362931    -0.03100
C1266       C  0.48306587  0.73318504  0.76615396    -0.03100
C1267       C  0.50781228  0.74621039  0.78214894     0.06800
C1268       C  0.53176290  0.75967560  0.76534730    -0.03300
Br1269     Br  0.56647884  0.77669751  0.78677319    -0.01800
Br1270     Br  0.56502201  0.77700585  0.71046795    -0.01900
Br1271     Br  0.44844111  0.71732132  0.78871620    -0.01900
Br1272     Br  0.44765734  0.71608923  0.71250140    -0.01900
C1273       C  0.52698299  0.66105590  0.87722582    -0.03000
C1274       C  0.50324622  0.68784530  0.88037559     0.06700
C1275       C  0.97604700  0.68547011  0.89902457    -0.03100
C1276       C  0.97258832  0.65646930  0.91457841    -0.03100
C1277       C  0.49695338  0.62965956  0.91240151     0.06800
C1278       C  0.52418526  0.63225955  0.89339909    -0.03300
Br1279     Br  0.55897384  0.59735555  0.88998857    -0.01800
Br1280     Br  0.56411532  0.66423110  0.85137327    -0.01900
Br1281     Br  0.93295019  0.65354635  0.93675550    -0.01900
Br1282     Br  0.94250173  0.72160464  0.90191394    -0.01900
C1283       C  0.53813284  0.81198297  0.89391500    -0.03000
C1284       C  0.50937614  0.80472364  0.88041745     0.06700
C1285       C  0.98133062  0.82704934  0.88230387    -0.03100
C1286       C  0.98185813  0.85649785  0.89810311    -0.03100
C1287       C  0.51067245  0.86383311  0.91196510     0.06800
C1288       C  0.53892976  0.84150101  0.90945916    -0.03300
Br1289     Br  0.57954553  0.85178275  0.92536177    -0.01800
Br1290     Br  0.57671716  0.78168789  0.89015442    -0.01900
Br1291     Br  0.94255485  0.88577142  0.90173739    -0.01900
Br1292     Br  0.94201691  0.81666459  0.86368782    -0.01900
C1293       C  0.96858035  0.67923543  0.61108507    -0.03000
C1294       C  0.49879399  0.68812415  0.61910307     0.06700
C1295       C  0.52695700  0.66733365  0.61226416    -0.03100
C1296       C  0.52499241  0.63822723  0.59639909    -0.03100
C1297       C  0.49477104  0.62925324  0.58814884     0.06800
C1298       C  0.96650194  0.64965388  0.59600519    -0.03300
Br1299     Br  0.92481542  0.63630472  0.58785312    -0.01800
Br1300     Br  0.93000140  0.70748575  0.62123997    -0.01900
Br1301     Br  0.56388631  0.61172003  0.58449259    -0.01900
Br1302     Br  0.56825398  0.67896969  0.62466163    -0.00600
C1303       C  0.97682255  0.82173380  0.60586439    -0.03000
C1304       C  0.50524024  0.80479814  0.61787163     0.06700
C1305       C  0.53471862  0.81723540  0.61405009    -0.03100
C1306       C  0.53566628  0.84677823  0.59876793    -0.03100
C1307       C  0.50726585  0.86377687  0.58663704     0.06800
C1308       C  0.97777464  0.85127580  0.59039423    -0.03300
Br1309     Br  0.93883228  0.87425440  0.57370508    -0.01800
Br1310     Br  0.93657763  0.80436690  0.61071968    -0.01900
Br1311     Br  0.57573821  0.86470750  0.59581067    -0.01900
Br1312     Br  0.57407476  0.79314706  0.62864185    -0.01900
C1313       C  0.84965237  0.98120050  0.91992626    -0.03000
C1314       C  0.86897455  0.00532852  0.91258141     0.06700
C1315       C  0.85856235  0.52860471  0.89027870    -0.03100
C1316       C  0.82889418  0.52773691  0.87513835    -0.03100
C1317       C  0.80957881  0.00343648  0.88213830     0.06800
C1318       C  0.82004922  0.98015909  0.90476226    -0.03300
Br1319     Br  0.79464654  0.94599704  0.91434426    -0.01800
Br1320     Br  0.86409700  0.94943408  0.95075472    -0.01900
Br1321     Br  0.81382558  0.56139104  0.84620645    -0.01900
Br1322     Br  0.88467339  0.56229113  0.88101654    -0.01900
C1323       C  0.67536835  0.97048777  0.87656285    -0.03000
C1324       C  0.69253364  0.99717180  0.88098708     0.06700
C1325       C  0.68057015  0.52156130  0.90195982    -0.03100
C1326       C  0.65161779  0.51950183  0.91818473    -0.03100
C1327       C  0.63431310  0.99316487  0.91341676     0.06800
C1328       C  0.64627337  0.96865543  0.89255070    -0.03300
Br1329     Br  0.62274181  0.93235066  0.88615325    -0.01800
Br1330     Br  0.69266922  0.93527589  0.85012832    -0.01900
Br1331     Br  0.63552052  0.55272750  0.94722706    -0.01900
Br1332     Br  0.70310614  0.55864679  0.90785168    -0.01900
C1333       C  0.86210519  0.51866214  0.61307199    -0.03000
C1334       C  0.86811815  0.00096080  0.58563149     0.06700
C1335       C  0.84471184  0.98254385  0.57429165    -0.03100
C1336       C  0.81549519  0.98162541  0.59044939    -0.03100
C1337       C  0.80920054  0.99967365  0.61808932     0.06800
C1338       C  0.83272291  0.51844304  0.62900295    -0.03300
Br1339     Br  0.82438437  0.54631800  0.66455041    -0.01800
Br1340     Br  0.89393833  0.54449158  0.62824160    -0.01900
Br1341     Br  0.78520072  0.95420643  0.57489054    -0.01900
Br1342     Br  0.85341491  0.95746297  0.53709409    -0.01900
C1343       C  0.64878885  0.96419102  0.60539449    -0.03000
C1344       C  0.63381188  0.99068019  0.58847325     0.06700
C1345       C  0.64795087  0.51946699  0.58782621    -0.03100
C1346       C  0.67643193  0.52207233  0.60451055    -0.03100
C1347       C  0.69157320  0.99556558  0.62106563     0.06800
C1348       C  0.67760388  0.96657484  0.62158161    -0.03300
Br1349     Br  0.69849718  0.92977112  0.64380953    -0.01800
Br1350     Br  0.62991092  0.92455125  0.60633842    -0.01900
Br1351     Br  0.69395512  0.56255164  0.60579280    -0.01900
Br1352     Br  0.62924898  0.55469970  0.56255254    -0.01900
loop_ 
_geom_bond_atom_site_label_1 
_geom_bond_atom_site_label_2 
_geom_bond_distance 
_geom_bond_site_symmetry_2 
_ccdc_geom_bond_type 
N1            N7   1.318       .  A
N1          N340   1.324       .  A
N1         Mn706   2.218       .  S
N2          N339   1.324   1_545  A
N2          C347   1.354   1_545  A
N3            N5   1.317       .  A
N3            N4   1.319       .  A
N3          Mn19   2.203       .  S
N4          C686   1.351       .  A
N5          N682   1.323   1_455  A
N5         Mn706   2.212       .  S
N6          N681   1.323       .  A
N6           C10   1.355       .  A
N7            N8   1.323       .  A
N7          Mn19   2.216       .  S
N8            C9   1.353       .  A
C9          N340   1.354       .  A
C9          C144   1.482       .  S
C10         N680   1.351       .  A
C10         C780   1.486       .  S
N11          N17   1.317       .  A
N11         N688   1.323   1_455  A
N11        Mn379   2.213       .  S
N12         N687   1.323       .  A
N12          C20   1.353       .  A
N13          N14   1.322       .  A
N13          N15   1.318       .  A
N13        Mn188   2.208       .  S
N14          C21   1.352       .  A
N15         N354   1.324       .  A
N15        Mn379   2.224       .  S
N16         N353   1.324   1_545  A
N16         C359   1.355   1_545  A
N17          N18   1.321       .  A
N17        Mn188   2.207       .  S
N18         C696   1.352       .  A
Mn19        N182   2.208       .  S
Mn19        N186   2.207       .  S
Mn19       Cl550   2.543       .  S
C20         N694   1.352       .  A
C20         C800   1.480       .  S
C21         N354   1.355       .  A
C21         C161   1.483       .  S
N22          N28   1.317       .  A
N22         N361   1.324   1_545  A
N22        Mn368   2.217   1_545  S
N23         N360   1.324       .  A
N23         C369   1.354       .  A
N24          N26   1.316       .  A
N24          N25   1.322       .  A
N24        Mn211   2.213       .  S
N25         C708   1.355       .  A
N26         N703   1.321       .  A
N26        Mn368   2.205   1_545  S
N27         N702   1.321   1_455  A
N27          C32   1.354   1_455  A
N28          N29   1.320       .  A
N28        Mn211   2.200       .  S
N29          C31   1.349       .  A
Mn30        N677   2.218       .  S
Mn30        N681   2.212       .  S
Mn30        N360   2.217       .  S
Mn30        N364   2.205       .  S
Mn30      Cl1226   2.563       .  S
C31         N361   1.354   1_545  A
C31         C469   1.476       .  S
C32         N701   1.355       .  A
C32          C94   1.498       .  S
N33          N39   1.316       .  A
N33         N710   1.323       .  A
N33        Mn717   2.213   1_545  S
N34         N709   1.323   1_455  A
N34          C44   1.354   1_455  A
N35          N36   1.323       .  A
N35          N37   1.317       .  A
N35         Mn42   2.211       .  S
N36          C45   1.352       .  A
N37         N376   1.324   1_545  A
N37        Mn717   2.220   1_545  S
N38         N375   1.324       .  A
N38         C383   1.355       .  A
N39          N40   1.321       .  A
N39         Mn42   2.202       .  S
N40         C720   1.351       .  A
Mn41        N349   2.213       .  S
Mn41        N353   2.224       .  S
Mn41        N709   2.213   1_465  S
Mn41        N713   2.220   1_465  S
Mn41        Cl43   2.558       .  S
Mn42        N193   2.213   1_554  S
Mn42        N197   2.200   1_554  S
Mn42       Cl719   2.540   1_545  S
Cl43       Mn526   2.543       .  S
Cl43      Mn1213   2.563   1_554  S
Cl43       Mn718   2.540   1_465  S
C44         N716   1.351       .  A
C44         C114   1.482       .  S
C45         N376   1.355   1_545  A
C45         C489   1.484       .  S
C46          N47   1.360       .  A
C46          N51   1.359       .  A
C46         C121   1.477       .  S
N47          C48   1.360       .  A
C48          N49   1.358       .  A
C48          C81   1.484       .  S
N49          C50   1.357       .  A
C50          N51   1.359       .  A
C50         C111   1.474   1_455  S
C52          N53   1.359       .  A
C52          N57   1.357       .  A
C52         C101   1.474       .  S
N53          C54   1.360       .  A
C54          N55   1.359       .  A
C54          C91   1.482       .  S
N55          C56   1.359       .  A
C56          N57   1.358       .  A
C56          C84   1.481       .  S
C58          N59   1.359       .  A
C58          N63   1.361       .  A
C58         C164   1.481       .  S
N59          C60   1.358       .  A
C60          N61   1.359       .  A
C60          C71   1.479       .  S
N61          C62   1.361       .  A
C62          N63   1.362       .  A
C62         C154   1.498       .  S
C64          N65   1.361       .  A
C64          N69   1.362       .  A
C64         C141   1.489       .  S
N65          C66   1.361       .  A
C66          N67   1.359       .  A
C66         C134   1.483       .  S
N67          C68   1.357       .  A
C68          N69   1.361       .  A
C68          C74   1.479       .  S
C70          C71   1.410       .  A
C70          C75   1.411       .  A
C70         Br77   1.929       .  S
C71         C410   1.410       .  A
C72          C73   1.409       .  A
C72         C409   1.410   1_545  A
C72         Br79   1.930       .  S
C73         C412   1.408   1_545  A
C73         Br78   1.929       .  S
C74          C75   1.411       .  A
C74         C411   1.408       .  A
C75         Br76   1.929       .  S
C80          C81   1.413       .  A
C80          C85   1.410       .  A
C80         Br87   1.929       .  S
C81          C82   1.413   1_455  A
C82          C83   1.408       .  A
C82         Br89   1.933       .  S
C83          C84   1.411   1_655  A
C83         Br88   1.933       .  S
C84          C85   1.412       .  A
C85         Br86   1.934       .  S
C90          C91   1.408       .  A
C90          C95   1.411       .  A
C90         Br97   1.933       .  S
C91         C768   1.409   1_455  A
C92          C93   1.411       .  A
C92         C767   1.409       .  A
C92         Br99   1.934       .  S
C93         C770   1.420       .  A
C93         Br98   1.934       .  S
C94          C95   1.421   1_655  A
C94         C769   1.420       .  A
C95         Br96   1.935       .  S
C100        C101   1.406       .  A
C100        C105   1.409       .  A
C100       Br107   1.931       .  S
C101        C778   1.407   1_455  A
C102        C103   1.410       .  A
C102        C777   1.407       .  A
C102       Br109   1.931       .  S
C103        C780   1.415       .  A
C103       Br108   1.931       .  S
C104        C686   1.486       .  S
C104        C105   1.417       .  A
C104        C779   1.415   1_455  A
C105       Br106   1.933       .  S
C110        C115   1.410       .  A
C110        C787   1.408       .  A
C110       Br117   1.929       .  S
C111        C112   1.406   1_655  A
C111        C786   1.408       .  A
C112        C113   1.408       .  A
C112       Br119   1.931       .  S
C113        C114   1.410   1_455  A
C113       Br118   1.922       .  S
C114        C791   1.412       .  A
C115        C790   1.412       .  A
C115       Br116   1.931       .  S
C120        C125   1.411       .  A
C120        C797   1.409       .  A
C120       Br127   1.928       .  S
C121        C122   1.408       .  A
C121        C796   1.409   1_455  A
C122        C123   1.407       .  A
C122       Br129   1.929       .  S
C123        C124   1.410       .  A
C123       Br128   1.926       .  S
C124        C696   1.480       .  S
C124        C801   1.410   1_455  A
C125        C800   1.410       .  A
C125       Br126   1.928       .  S
C130        C131   1.407       .  A
C130        C135   1.409       .  A
C130       Br137   1.928       .  S
C131        C369   1.476       .  S
C131        C470   1.408       .  A
C132        C133   1.410       .  A
C132        C469   1.408       .  A
C132       Br139   1.930       .  S
C133        C472   1.414       .  A
C133       Br138   1.932       .  S
C134        C135   1.413       .  A
C134        C471   1.414       .  A
C135       Br136   1.930       .  S
C140        C141   1.413       .  A
C140        C145   1.411       .  A
C140       Br147   1.931       .  S
C141        C480   1.414       .  A
C142        C143   1.413       .  A
C142        C479   1.414   1_545  A
C142       Br149   1.930       .  S
C143        C482   1.409   1_545  A
C143       Br148   1.929       .  S
C144        C145   1.409       .  A
C144        C481   1.409       .  A
C145       Br146   1.930       .  S
C150        C155   1.411       .  A
C150        C489   1.407       .  A
C150       Br157   1.932       .  S
C151        C383   1.484       .  S
C151        C152   1.408       .  A
C151        C488   1.407       .  A
C152        C153   1.414       .  A
C152       Br159   1.929       .  S
C153        C154   1.420       .  A
C153       Br158   1.934       .  S
C154        C493   1.420       .  A
C155        C492   1.420   1_545  A
C155       Br156   1.933       .  S
C160        C161   1.410       .  A
C160        C165   1.410       .  A
C160       Br167   1.924       .  S
C161        C500   1.408       .  A
C162        C163   1.411       .  A
C162        C499   1.408   1_545  A
C162       Br169   1.923       .  S
C163        C502   1.409   1_545  A
C163       Br168   1.928       .  S
C164        C165   1.410       .  A
C164        C501   1.409       .  A
C165       Br166   1.931       .  S
N170        N509   1.324       .  A
N170        N176   1.318       .  A
N170       Mn875   2.218       .  S
N171        N508   1.324   1_545  A
N171        C516   1.354   1_545  A
N172        N174   1.317       .  A
N172        N173   1.319       .  A
N172       Mn188   2.203   1_556  S
N173        C855   1.351       .  A
N174        N851   1.323   1_455  A
N174       Mn875   2.212       .  S
N175        N850   1.323       .  A
N175        C179   1.355       .  A
N176        N177   1.323       .  A
N176       Mn188   2.216   1_556  S
N177        C178   1.353       .  A
C178        N509   1.354       .  A
C178        C313   1.482       .  S
C179        N849   1.351       .  A
C179        C949   1.487       .  S
N180        N186   1.317       .  A
N180        N857   1.323   1_455  A
N180       Mn548   2.213       .  S
N181        N856   1.323       .  A
N181        C189   1.353       .  A
N182        N183   1.322       .  A
N182        N184   1.318       .  A
N183        C190   1.352       .  A
N184        N523   1.324       .  A
N184       Mn548   2.224       .  S
N185        N522   1.324   1_545  A
N185        C528   1.355   1_545  A
N186        N187   1.321       .  A
N187        C865   1.352       .  A
Mn188      Cl381   2.543       .  S
C189        N863   1.352       .  A
C189        C969   1.480       .  S
C190        N523   1.355       .  A
C190        C330   1.483       .  S
N191        N530   1.324   1_545  A
N191        N197   1.317       .  A
N191       Mn537   2.217   1_545  S
N192        N529   1.324       .  A
N192        C538   1.354       .  A
N193        N195   1.316       .  A
N193        N194   1.322       .  A
N194        C877   1.355       .  A
N195        N872   1.321       .  A
N195       Mn537   2.205   1_545  S
N196        N871   1.321   1_455  A
N196        C201   1.354   1_455  A
N197        N198   1.320       .  A
N198        C200   1.349       .  A
Mn199       N846   2.218       .  S
Mn199       N850   2.212       .  S
Mn199       N529   2.217       .  S
Mn199       N533   2.205       .  S
Mn199     Cl1057   2.563   1_556  S
C200        N530   1.354   1_545  A
C200        C638   1.476       .  S
C201        N870   1.355       .  A
C201        C263   1.497       .  S
N202        N879   1.323       .  A
N202        N208   1.316       .  A
N202       Mn886   2.213   1_545  S
N203        N878   1.323   1_455  A
N203        C213   1.354   1_455  A
N204        N205   1.323       .  A
N204        N206   1.317       .  A
N204       Mn211   2.211       .  S
N205        C214   1.352       .  A
N206        N545   1.324   1_545  A
N206       Mn886   2.220   1_545  S
N207        N544   1.324       .  A
N207        C552   1.355       .  A
N208        N209   1.321       .  A
N208       Mn211   2.202       .  S
N209        C889   1.351       .  A
Mn210       N518   2.213       .  S
Mn210       N522   2.224       .  S
Mn210       N878   2.213   1_465  S
Mn210       N882   2.220   1_465  S
Mn210      Cl212   2.558       .  S
Mn211      Cl888   2.540   1_545  S
Cl212      Mn357   2.543       .  S
Cl212     Mn1044   2.563       .  S
Cl212      Mn887   2.540   1_465  S
C213        N885   1.351       .  A
C213        C283   1.482       .  S
C214        N545   1.355   1_545  A
C214        C658   1.484       .  S
C215        N216   1.360       .  A
C215        N220   1.359       .  A
C215        C290   1.477       .  S
N216        C217   1.360       .  A
C217        N218   1.358       .  A
C217        C250   1.484       .  S
N218        C219   1.357       .  A
C219        N220   1.359       .  A
C219        C280   1.474   1_455  S
C221        N222   1.359       .  A
C221        N226   1.357       .  A
C221        C270   1.474       .  S
N222        C223   1.360       .  A
C223        N224   1.359       .  A
C223        C260   1.482       .  S
N224        C225   1.359       .  A
C225        N226   1.358       .  A
C225        C253   1.481       .  S
C227        N228   1.359       .  A
C227        N232   1.361       .  A
C227        C333   1.481       .  S
N228        C229   1.358       .  A
C229        N230   1.359       .  A
C229        C240   1.479       .  S
N230        C231   1.361       .  A
C231        N232   1.362       .  A
C231        C323   1.498       .  S
C233        N234   1.361       .  A
C233        N238   1.362       .  A
C233        C310   1.489       .  S
N234        C235   1.361       .  A
C235        N236   1.359       .  A
C235        C303   1.483       .  S
N236        C237   1.357       .  A
C237        N238   1.361       .  A
C237        C243   1.479       .  S
C239        C240   1.410       .  A
C239        C244   1.411       .  A
C239       Br246   1.929       .  S
C240        C579   1.410       .  A
C241        C578   1.410   1_545  A
C241        C242   1.409       .  A
C241       Br248   1.930       .  S
C242        C581   1.408   1_545  A
C242       Br247   1.929       .  S
C243        C580   1.408       .  A
C243        C244   1.411       .  A
C244       Br245   1.929       .  S
C249        C250   1.413       .  A
C249        C254   1.410       .  A
C249       Br256   1.929       .  S
C250        C251   1.413   1_455  A
C251        C252   1.408       .  A
C251       Br258   1.933       .  S
C252        C253   1.411   1_655  A
C252       Br257   1.933       .  S
C253        C254   1.412       .  A
C254       Br255   1.934       .  S
C259        C260   1.408       .  A
C259        C264   1.411       .  A
C259       Br266   1.933       .  S
C260        C937   1.409   1_455  A
C261        C936   1.409       .  A
C261        C262   1.411       .  A
C261       Br268   1.934       .  S
C262        C939   1.420       .  A
C262       Br267   1.934       .  S
C263        C938   1.420       .  A
C263        C264   1.421   1_655  A
C264       Br265   1.935       .  S
C269        C270   1.406       .  A
C269        C274   1.409       .  A
C269       Br276   1.931       .  S
C270        C947   1.407   1_455  A
C271        C946   1.407       .  A
C271        C272   1.410       .  A
C271       Br278   1.931       .  S
C272        C949   1.415       .  A
C272       Br277   1.931       .  S
C273        C855   1.487       .  S
C273        C948   1.415   1_455  A
C273        C274   1.417       .  A
C274       Br275   1.933       .  S
C279        C956   1.408       .  A
C279        C284   1.410       .  A
C279       Br286   1.929       .  S
C280        C955   1.408       .  A
C280        C281   1.406   1_655  A
C281        C282   1.408       .  A
C281       Br288   1.931       .  S
C282        C283   1.410   1_455  A
C282       Br287   1.922       .  S
C283        C960   1.412       .  A
C284        C959   1.412       .  A
C284       Br285   1.931       .  S
C289        C966   1.409       .  A
C289        C294   1.411       .  A
C289       Br296   1.928       .  S
C290        C965   1.409   1_455  A
C290        C291   1.408       .  A
C291        C292   1.407       .  A
C291       Br298   1.929       .  S
C292        C293   1.410       .  A
C292       Br297   1.926       .  S
C293        C865   1.480       .  S
C293        C970   1.410   1_455  A
C294        C969   1.410       .  A
C294       Br295   1.928       .  S
C299        C300   1.407       .  A
C299        C304   1.409       .  A
C299       Br306   1.928       .  S
C300        C538   1.476       .  S
C300        C639   1.408       .  A
C301        C638   1.408       .  A
C301        C302   1.410       .  A
C301       Br308   1.930       .  S
C302        C641   1.414       .  A
C302       Br307   1.932       .  S
C303        C640   1.414       .  A
C303        C304   1.413       .  A
C304       Br305   1.930       .  S
C309        C310   1.413       .  A
C309        C314   1.411       .  A
C309       Br316   1.931       .  S
C310        C649   1.414       .  A
C311        C648   1.414   1_545  A
C311        C312   1.413       .  A
C311       Br318   1.930       .  S
C312        C651   1.409   1_545  A
C312       Br317   1.929       .  S
C313        C650   1.409       .  A
C313        C314   1.409       .  A
C314       Br315   1.930       .  S
C319        C658   1.407       .  A
C319        C324   1.411       .  A
C319       Br326   1.932       .  S
C320        C552   1.484       .  S
C320        C657   1.407       .  A
C320        C321   1.408       .  A
C321        C322   1.414       .  A
C321       Br328   1.929       .  S
C322        C323   1.420       .  A
C322       Br327   1.934       .  S
C323        C662   1.420       .  A
C324        C661   1.420   1_545  A
C324       Br325   1.933       .  S
C329        C330   1.410       .  A
C329        C334   1.410       .  A
C329       Br336   1.924       .  S
C330        C669   1.408       .  A
C331        C668   1.408   1_545  A
C331        C332   1.411       .  A
C331       Br338   1.924       .  S
C332        C671   1.409   1_545  A
C332       Br337   1.928       .  S
C333        C670   1.409       .  A
C333        C334   1.410       .  A
C334       Br335   1.931       .  S
N339        N345   1.318       .  A
N339      Mn1044   2.218       .  S
N341        N343   1.317       .  A
N341        N342   1.319       .  A
N341       Mn357   2.203       .  S
N342       C1024   1.351       .  A
N343       N1020   1.323   1_455  A
N343      Mn1044   2.212       .  S
N344       N1019   1.323       .  A
N344        C348   1.355       .  A
N345        N346   1.323       .  A
N345       Mn357   2.216       .  S
N346        C347   1.353       .  A
C347        C482   1.482       .  S
C348       N1018   1.351       .  A
C348       C1118   1.487       .  S
N349        N355   1.317       .  A
N349       N1026   1.323   1_455  A
N350       N1025   1.323       .  A
N350        C358   1.353       .  A
N351        N352   1.322       .  A
N351        N353   1.318       .  A
N351       Mn526   2.208       .  S
N352        C359   1.352       .  A
N355        N356   1.321       .  A
N355       Mn526   2.207       .  S
N356       C1034   1.352       .  A
Mn357       N520   2.208       .  S
Mn357       N524   2.207       .  S
C358       N1032   1.352       .  A
C358       C1138   1.480       .  S
C359        C499   1.483       .  S
N360        N366   1.317       .  A
N362        N364   1.316       .  A
N362        N363   1.322       .  A
N362       Mn549   2.213       .  S
N363       C1046   1.355       .  A
N364       N1041   1.321       .  A
N365       N1040   1.321   1_455  A
N365        C370   1.354   1_455  A
N366        N367   1.320       .  A
N366       Mn549   2.200       .  S
N367        C369   1.349       .  A
Mn368      N1015   2.218       .  S
Mn368      N1019   2.212       .  S
Mn368      Cl888   2.563       .  S
C370       N1039   1.355       .  A
C370        C432   1.497       .  S
N371       N1048   1.323       .  A
N371        N377   1.316       .  A
N371      Mn1055   2.213       .  S
N372       N1047   1.323   1_455  A
N372        C382   1.354   1_455  A
N373        N374   1.323       .  A
N373        N375   1.317       .  A
N373       Mn380   2.211       .  S
N374        C383   1.352       .  A
N375      Mn1055   2.220       .  S
N377        N378   1.321       .  A
N377       Mn380   2.202       .  S
N378       C1058   1.351       .  A
Mn379      N1047   2.213   1_455  S
Mn379      N1051   2.220   1_455  S
Mn379      Cl381   2.558       .  S
Mn380       N531   2.213   1_554  S
Mn380       N535   2.200   1_554  S
Mn380     Cl1057   2.540       .  S
Cl381      Mn875   2.563   1_554  S
Cl381     Mn1056   2.540   1_455  S
C382       N1054   1.351       .  A
C382        C452   1.482       .  S
C384        N385   1.360       .  A
C384        N389   1.359       .  A
C384        C459   1.477       .  S
N385        C386   1.360       .  A
C386        N387   1.358       .  A
C386        C419   1.484       .  S
N387        C388   1.357       .  A
C388        N389   1.359       .  A
C388        C449   1.474   1_455  S
C390        N391   1.359       .  A
C390        N395   1.357       .  A
C390        C439   1.474       .  S
N391        C392   1.360       .  A
C392        N393   1.359       .  A
C392        C429   1.482       .  S
N393        C394   1.359       .  A
C394        N395   1.358       .  A
C394        C422   1.481       .  S
C396        N397   1.359       .  A
C396        N401   1.361       .  A
C396        C502   1.481       .  S
N397        C398   1.358       .  A
C398        N399   1.359       .  A
C398        C409   1.479       .  S
N399        C400   1.361       .  A
C400        N401   1.362       .  A
C400        C492   1.498       .  S
C402        N403   1.361   1_565  A
C402        N407   1.362       .  A
C402        C479   1.489       .  S
N403        C404   1.361       .  A
C404        N405   1.359   1_545  A
C404        C472   1.483       .  S
N405        C406   1.357       .  A
C406        N407   1.361       .  A
C406        C412   1.479       .  S
C408        C409   1.410       .  A
C408        C413   1.411       .  A
C408       Br415   1.929       .  S
C410        C411   1.409       .  A
C410       Br417   1.930       .  S
C411       Br416   1.929       .  S
C412        C413   1.411       .  A
C413       Br414   1.929       .  S
C418        C419   1.413       .  A
C418        C423   1.410       .  A
C418       Br425   1.929       .  S
C419        C420   1.413   1_455  A
C420        C421   1.408       .  A
C420       Br427   1.933       .  S
C421        C422   1.411   1_655  A
C421       Br426   1.933       .  S
C422        C423   1.412       .  A
C423       Br424   1.934       .  S
C428        C429   1.408       .  A
C428        C433   1.411       .  A
C428       Br435   1.933       .  S
C429       C1106   1.409   1_455  A
C430       C1105   1.409       .  A
C430        C431   1.411       .  A
C430       Br437   1.934       .  S
C431       C1108   1.420       .  A
C431       Br436   1.934       .  S
C432       C1107   1.420       .  A
C432        C433   1.421   1_655  A
C433       Br434   1.935       .  S
C438        C439   1.406       .  A
C438        C443   1.409       .  A
C438       Br445   1.931       .  S
C439       C1116   1.407   1_455  A
C440       C1115   1.407       .  A
C440        C441   1.410       .  A
C440       Br447   1.931       .  S
C441       C1118   1.415       .  A
C441       Br446   1.931       .  S
C442       C1024   1.487       .  S
C442       C1117   1.415   1_455  A
C442        C443   1.417       .  A
C443       Br444   1.933       .  S
C448       C1125   1.408       .  A
C448        C453   1.410       .  A
C448       Br455   1.929       .  S
C449       C1124   1.408       .  A
C449        C450   1.406   1_655  A
C450        C451   1.408       .  A
C450       Br457   1.931       .  S
C451        C452   1.410   1_455  A
C451       Br456   1.922       .  S
C452       C1129   1.412       .  A
C453       C1128   1.412       .  A
C453       Br454   1.931       .  S
C458       C1135   1.409       .  A
C458        C463   1.411       .  A
C458       Br465   1.928       .  S
C459       C1134   1.409   1_455  A
C459        C460   1.408       .  A
C460        C461   1.407       .  A
C460       Br467   1.929       .  S
C461        C462   1.410       .  A
C461       Br466   1.926       .  S
C462       C1034   1.480       .  S
C462       C1139   1.410   1_455  A
C463       C1138   1.410       .  A
C463       Br464   1.928       .  S
C468        C469   1.407   1_565  A
C468        C473   1.409       .  A
C468       Br475   1.928       .  S
C470        C471   1.410       .  A
C470       Br477   1.930       .  S
C471       Br476   1.932       .  S
C472        C473   1.413   1_545  A
C473       Br474   1.930       .  S
C478        C479   1.413       .  A
C478        C483   1.411       .  A
C478       Br485   1.931       .  S
C480        C481   1.413       .  A
C480       Br487   1.930       .  S
C481       Br486   1.929       .  S
C482        C483   1.409       .  A
C483       Br484   1.930       .  S
C488        C493   1.411       .  A
C488       Br495   1.932       .  S
C489        C490   1.408   1_545  A
C490        C491   1.414       .  A
C490       Br497   1.929       .  S
C491        C492   1.420       .  A
C491       Br496   1.934       .  S
C493       Br494   1.933       .  S
C498        C499   1.410       .  A
C498        C503   1.410       .  A
C498       Br505   1.924       .  S
C500        C501   1.411       .  A
C500       Br507   1.924       .  S
C501       Br506   1.928       .  S
C502        C503   1.410       .  A
C503       Br504   1.931       .  S
N508        N514   1.318       .  A
N508      Mn1213   2.218       .  S
N510        N512   1.317       .  A
N510        N511   1.319       .  A
N510       Mn526   2.203   1_556  S
N511       C1193   1.351       .  A
N512       N1189   1.323   1_455  A
N512      Mn1213   2.212       .  S
N513       N1188   1.323       .  A
N513        C517   1.355       .  A
N514        N515   1.323       .  A
N514       Mn526   2.216   1_556  S
N515        C516   1.353       .  A
C516        C651   1.482       .  S
C517       N1187   1.351       .  A
C517       C1287   1.486       .  S
N518        N524   1.317       .  A
N518       N1195   1.323   1_455  A
N519       N1194   1.323       .  A
N519        C527   1.353       .  A
N520        N521   1.322       .  A
N520        N522   1.318       .  A
N521        C528   1.352       .  A
N524        N525   1.321       .  A
N525       C1203   1.352       .  A
C527       N1201   1.352       .  A
C527       C1307   1.480       .  S
C528        C668   1.483       .  S
N529        N535   1.317       .  A
N531        N533   1.316       .  A
N531        N532   1.322       .  A
N532       C1215   1.355       .  A
N533       N1210   1.321       .  A
N534       N1209   1.321   1_455  A
N534        C539   1.354   1_455  A
N535        N536   1.320       .  A
N536        C538   1.349       .  A
Mn537      N1184   2.218       .  S
Mn537      N1188   2.212       .  S
Mn537      Cl719   2.563   1_556  S
C539       N1208   1.355       .  A
C539        C601   1.498       .  S
N540       N1217   1.323       .  A
N540        N546   1.316       .  A
N540      Mn1224   2.213       .  S
N541       N1216   1.323   1_455  A
N541        C551   1.354   1_455  A
N542        N543   1.323       .  A
N542        N544   1.317       .  A
N542       Mn549   2.211       .  S
N543        C552   1.352       .  A
N544      Mn1224   2.220       .  S
N546        N547   1.321       .  A
N546       Mn549   2.202       .  S
N547       C1227   1.351       .  A
Mn548      N1216   2.213   1_455  S
Mn548      N1220   2.220   1_455  S
Mn548      Cl550   2.558       .  S
Mn549     Cl1226   2.540       .  S
Cl550      Mn706   2.563       .  S
Cl550     Mn1225   2.540   1_455  S
C551       N1223   1.351       .  A
C551        C621   1.482       .  S
C553        N554   1.360       .  A
C553        N558   1.359       .  A
C553        C628   1.477       .  S
N554        C555   1.360       .  A
C555        N556   1.358       .  A
C555        C588   1.484       .  S
N556        C557   1.357       .  A
C557        N558   1.359       .  A
C557        C618   1.474   1_455  S
C559        N560   1.359       .  A
C559        N564   1.357       .  A
C559        C608   1.474       .  S
N560        C561   1.360       .  A
C561        N562   1.359       .  A
C561        C598   1.482       .  S
N562        C563   1.359       .  A
C563        N564   1.358       .  A
C563        C591   1.481       .  S
C565        N566   1.359       .  A
C565        N570   1.361       .  A
C565        C671   1.481       .  S
N566        C567   1.358       .  A
C567        N568   1.359       .  A
C567        C578   1.479       .  S
N568        C569   1.361       .  A
C569        N570   1.362       .  A
C569        C661   1.498       .  S
C571        N572   1.361   1_565  A
C571        N576   1.362       .  A
C571        C648   1.489       .  S
N572        C573   1.361       .  A
C573        N574   1.359   1_545  A
C573        C641   1.483       .  S
N574        C575   1.357       .  A
C575        N576   1.361       .  A
C575        C581   1.479       .  S
C577        C578   1.410       .  A
C577        C582   1.411       .  A
C577       Br584   1.929       .  S
C579        C580   1.409       .  A
C579       Br586   1.930       .  S
C580       Br585   1.929       .  S
C581        C582   1.411       .  A
C582       Br583   1.929       .  S
C587        C588   1.413       .  A
C587        C592   1.410       .  A
C587       Br594   1.929       .  S
C588        C589   1.413   1_455  A
C589        C590   1.408       .  A
C589       Br596   1.933       .  S
C590        C591   1.411   1_655  A
C590       Br595   1.933       .  S
C591        C592   1.412       .  A
C592       Br593   1.934       .  S
C597        C598   1.408       .  A
C597        C602   1.411       .  A
C597       Br604   1.933       .  S
C598       C1275   1.409   1_455  A
C599       C1274   1.409       .  A
C599        C600   1.411       .  A
C599       Br606   1.934       .  S
C600       C1277   1.420       .  A
C600       Br605   1.934       .  S
C601       C1276   1.420       .  A
C601        C602   1.421   1_655  A
C602       Br603   1.935       .  S
C607        C608   1.406       .  A
C607        C612   1.409       .  A
C607       Br614   1.931       .  S
C608       C1285   1.407   1_455  A
C609       C1284   1.407       .  A
C609        C610   1.410       .  A
C609       Br616   1.931       .  S
C610       C1287   1.415       .  A
C610       Br615   1.931       .  S
C611       C1193   1.486       .  S
C611       C1286   1.415   1_455  A
C611        C612   1.417       .  A
C612       Br613   1.933       .  S
C617       C1294   1.408       .  A
C617        C622   1.410       .  A
C617       Br624   1.929       .  S
C618       C1293   1.408       .  A
C618        C619   1.406   1_655  A
C619        C620   1.407       .  A
C619       Br626   1.931       .  S
C620        C621   1.410   1_455  A
C620       Br625   1.922       .  S
C621       C1298   1.412       .  A
C622       C1297   1.412       .  A
C622       Br623   1.931       .  S
C627       C1304   1.409       .  A
C627        C632   1.411       .  A
C627       Br634   1.928       .  S
C628       C1303   1.409   1_455  A
C628        C629   1.408       .  A
C629        C630   1.407       .  A
C629       Br636   1.929       .  S
C630        C631   1.410       .  A
C630       Br635   1.926       .  S
C631       C1203   1.480       .  S
C631       C1308   1.410   1_455  A
C632       C1307   1.410       .  A
C632       Br633   1.928       .  S
C637        C638   1.407   1_565  A
C637        C642   1.409       .  A
C637       Br644   1.928       .  S
C639        C640   1.410       .  A
C639       Br646   1.930       .  S
C640       Br645   1.932       .  S
C641        C642   1.413   1_545  A
C642       Br643   1.930       .  S
C647        C648   1.413       .  A
C647        C652   1.411       .  A
C647       Br654   1.931       .  S
C649        C650   1.413       .  A
C649       Br656   1.930       .  S
C650       Br655   1.929       .  S
C651        C652   1.409       .  A
C652       Br653   1.930       .  S
C657        C662   1.411       .  A
C657       Br664   1.932       .  S
C658        C659   1.408   1_545  A
C659        C660   1.414       .  A
C659       Br666   1.929       .  S
C660        C661   1.420       .  A
C660       Br665   1.934       .  S
C662       Br663   1.933       .  S
C667        C668   1.410       .  A
C667        C672   1.410       .  A
C667       Br674   1.924       .  S
C669        C670   1.411       .  A
C669       Br676   1.923       .  S
C670       Br675   1.928       .  S
C671        C672   1.410       .  A
C672       Br673   1.931       .  S
N677       N1016   1.324       .  A
N677        N683   1.318       .  A
N678       N1015   1.324   1_545  A
N678       C1023   1.354   1_545  A
N679        N681   1.317       .  A
N679        N680   1.319       .  A
N679       Mn695   2.203       .  S
N682        C686   1.355   1_655  A
N683        N684   1.323       .  A
N683       Mn695   2.216       .  S
N684        C685   1.353       .  A
C685       N1016   1.354       .  A
C685        C820   1.482       .  S
N687        N693   1.317       .  A
N687      Mn1055   2.213       .  S
N688        C696   1.353   1_655  A
N689        N690   1.322       .  A
N689        N691   1.318       .  A
N689       Mn864   2.208       .  S
N690        C697   1.352       .  A
N691       N1030   1.324       .  A
N691      Mn1055   2.224       .  S
N692       N1029   1.324   1_545  A
N692       C1035   1.355   1_545  A
N693        N694   1.321       .  A
N693       Mn864   2.207       .  S
Mn695       N858   2.208       .  S
Mn695       N862   2.207       .  S
Mn695     Cl1226   2.543       .  S
C697       N1030   1.355       .  A
C697        C837   1.483       .  S
N698       N1037   1.324   1_545  A
N698        N704   1.317       .  A
N698      Mn1044   2.217   1_645  S
N699       N1036   1.324       .  A
N699       C1045   1.354       .  A
N700        N702   1.316       .  A
N700        N701   1.322       .  A
N700       Mn887   2.213       .  S
N702      Mn1044   2.205   1_645  S
N703        C708   1.354       .  A
N704        N705   1.320       .  A
N704       Mn887   2.200       .  S
N705        C707   1.349       .  A
Mn706      N1036   2.217   1_455  S
Mn706      N1040   2.205   1_455  S
C707       N1037   1.354   1_545  A
C707       C1145   1.476       .  S
C708        C770   1.498       .  S
N709        N715   1.316       .  A
N710        C720   1.354       .  A
N711        N712   1.323       .  A
N711        N713   1.317       .  A
N711       Mn718   2.211       .  S
N712        C721   1.352       .  A
N713       N1052   1.324   1_545  A
N714       N1051   1.324       .  A
N714       C1059   1.355       .  A
N715        N716   1.321       .  A
N715       Mn718   2.202       .  S
Mn717      N1025   2.213       .  S
Mn717      N1029   2.224       .  S
Mn717      Cl719   2.558       .  S
Mn718       N869   2.213   1_554  S
Mn718       N873   2.200   1_554  S
Cl719     Mn1202   2.543       .  S
C720        C790   1.482       .  S
C721       N1052   1.355   1_545  A
C721       C1165   1.484       .  S
C722        N723   1.360       .  A
C722        N727   1.359       .  A
C722        C797   1.477       .  S
N723        C724   1.360       .  A
C724        N725   1.358       .  A
C724        C757   1.484       .  S
N725        C726   1.357       .  A
C726        N727   1.359       .  A
C726        C787   1.474       .  S
C728        N729   1.359       .  A
C728        N733   1.357       .  A
C728        C777   1.474       .  S
N729        C730   1.360       .  A
C730        N731   1.359       .  A
C730        C767   1.482       .  S
N731        C732   1.359       .  A
C732        N733   1.358       .  A
C732        C760   1.481       .  S
C734        N735   1.359       .  A
C734        N739   1.361       .  A
C734        C840   1.481       .  S
N735        C736   1.358       .  A
C736        N737   1.359       .  A
C736        C747   1.479       .  S
N737        C738   1.361       .  A
C738        N739   1.362       .  A
C738        C830   1.498       .  S
C740        N741   1.361       .  A
C740        N745   1.362       .  A
C740        C817   1.489       .  S
N741        C742   1.361       .  A
C742        N743   1.359       .  A
C742        C810   1.483       .  S
N743        C744   1.357       .  A
C744        N745   1.361       .  A
C744        C750   1.479       .  S
C746        C747   1.410       .  A
C746        C751   1.411       .  A
C746       Br753   1.929       .  S
C747       C1086   1.410       .  A
C748       C1085   1.410   1_545  A
C748        C749   1.409       .  A
C748       Br755   1.930       .  S
C749       C1088   1.408   1_545  A
C749       Br754   1.929       .  S
C750       C1087   1.408       .  A
C750        C751   1.411       .  A
C751       Br752   1.929       .  S
C756        C757   1.413       .  A
C756        C761   1.410       .  A
C756       Br763   1.929       .  S
C757        C758   1.413       .  A
C758        C759   1.408       .  A
C758       Br765   1.933       .  S
C759        C760   1.411       .  A
C759       Br764   1.933       .  S
C760        C761   1.412       .  A
C761       Br762   1.934       .  S
C766        C767   1.408       .  A
C766        C771   1.411       .  A
C766       Br773   1.933       .  S
C768        C769   1.411       .  A
C768       Br775   1.934       .  S
C769       Br774   1.934       .  S
C770        C771   1.421       .  A
C771       Br772   1.935       .  S
C776        C777   1.406       .  A
C776        C781   1.409       .  A
C776       Br783   1.931       .  S
C778        C779   1.410       .  A
C778       Br785   1.931       .  S
C779       Br784   1.931       .  S
C780        C781   1.417       .  A
C781       Br782   1.933       .  S
C786        C791   1.410       .  A
C786       Br793   1.929       .  S
C787        C788   1.406       .  A
C788        C789   1.407       .  A
C788       Br795   1.931       .  S
C789        C790   1.410       .  A
C789       Br794   1.922       .  S
C791       Br792   1.931       .  S
C796        C801   1.411       .  A
C796       Br803   1.928       .  S
C797        C798   1.408       .  A
C798        C799   1.407       .  A
C798       Br805   1.929       .  S
C799        C800   1.410       .  A
C799       Br804   1.926       .  S
C801       Br802   1.928       .  S
C806        C807   1.407       .  A
C806        C811   1.409       .  A
C806       Br813   1.928       .  S
C807       C1045   1.476       .  S
C807       C1146   1.408       .  A
C808       C1145   1.408       .  A
C808        C809   1.410       .  A
C808       Br815   1.930       .  S
C809       C1148   1.414       .  A
C809       Br814   1.932       .  S
C810       C1147   1.414       .  A
C810        C811   1.413       .  A
C811       Br812   1.930       .  S
C816        C817   1.413       .  A
C816        C821   1.411       .  A
C816       Br823   1.931       .  S
C817       C1156   1.414       .  A
C818       C1155   1.414   1_545  A
C818        C819   1.413       .  A
C818       Br825   1.930       .  S
C819       C1158   1.409   1_545  A
C819       Br824   1.929       .  S
C820       C1157   1.409       .  A
C820        C821   1.409       .  A
C821       Br822   1.930       .  S
C826       C1165   1.407       .  A
C826        C831   1.411       .  A
C826       Br833   1.932       .  S
C827       C1059   1.484       .  S
C827       C1164   1.407       .  A
C827        C828   1.408       .  A
C828        C829   1.414       .  A
C828       Br835   1.929       .  S
C829        C830   1.420       .  A
C829       Br834   1.934       .  S
C830       C1169   1.420       .  A
C831       C1168   1.420   1_545  A
C831       Br832   1.933       .  S
C836        C837   1.410       .  A
C836        C841   1.410       .  A
C836       Br843   1.924       .  S
C837       C1176   1.408       .  A
C838       C1175   1.408   1_545  A
C838        C839   1.411       .  A
C838       Br845   1.923       .  S
C839       C1178   1.409   1_545  A
C839       Br844   1.928       .  S
C840       C1177   1.409       .  A
C840        C841   1.410       .  A
C841       Br842   1.931       .  S
N846       N1185   1.324       .  A
N846        N852   1.318       .  A
N847       N1184   1.324   1_545  A
N847       C1192   1.354   1_545  A
N848        N850   1.317       .  A
N848        N849   1.319       .  A
N848       Mn864   2.203   1_556  S
N851        C855   1.355   1_655  A
N852        N853   1.323       .  A
N852       Mn864   2.216   1_556  S
N853        C854   1.353       .  A
C854       N1185   1.354       .  A
C854        C989   1.482       .  S
N856        N862   1.317       .  A
N856      Mn1224   2.213       .  S
N857        C865   1.353   1_655  A
N858        N859   1.322       .  A
N858        N860   1.318       .  A
N859        C866   1.352       .  A
N860       N1199   1.324       .  A
N860      Mn1224   2.224       .  S
N861       N1198   1.324   1_545  A
N861       C1204   1.355   1_545  A
N862        N863   1.321       .  A
Mn864     Cl1057   2.543       .  S
C866       N1199   1.355       .  A
C866       C1006   1.483       .  S
N867       N1206   1.324   1_545  A
N867        N873   1.317       .  A
N867      Mn1213   2.217   1_645  S
N868       N1205   1.324       .  A
N868       C1214   1.354       .  A
N869        N871   1.316       .  A
N869        N870   1.322       .  A
N871      Mn1213   2.205   1_645  S
N872        C877   1.354       .  A
N873        N874   1.320       .  A
N874        C876   1.349       .  A
Mn875      N1205   2.217   1_455  S
Mn875      N1209   2.205   1_455  S
C876       N1206   1.354   1_545  A
C876       C1314   1.476       .  S
C877        C939   1.497       .  S
N878        N884   1.316       .  A
N879        C889   1.354       .  A
N880        N881   1.323       .  A
N880        N882   1.317       .  A
N880       Mn887   2.211       .  S
N881        C890   1.352       .  A
N882       N1221   1.324   1_545  A
N883       N1220   1.324       .  A
N883       C1228   1.355       .  A
N884        N885   1.321       .  A
N884       Mn887   2.202       .  S
Mn886      N1194   2.213       .  S
Mn886      N1198   2.224       .  S
Mn886      Cl888   2.558       .  S
Cl888     Mn1033   2.543       .  S
C889        C959   1.482       .  S
C890       N1221   1.355   1_545  A
C890       C1334   1.484       .  S
C891        N892   1.360       .  A
C891        N896   1.359       .  A
C891        C966   1.477       .  S
N892        C893   1.360       .  A
C893        N894   1.358       .  A
C893        C926   1.484       .  S
N894        C895   1.357       .  A
C895        N896   1.359       .  A
C895        C956   1.474       .  S
C897        N898   1.359       .  A
C897        N902   1.357       .  A
C897        C946   1.474       .  S
N898        C899   1.360       .  A
C899        N900   1.359       .  A
C899        C936   1.482       .  S
N900        C901   1.359       .  A
C901        N902   1.358       .  A
C901        C929   1.481       .  S
C903        N904   1.359       .  A
C903        N908   1.361       .  A
C903       C1009   1.481       .  S
N904        C905   1.358       .  A
C905        N906   1.359       .  A
C905        C916   1.479       .  S
N906        C907   1.361       .  A
C907        N908   1.362       .  A
C907        C999   1.498       .  S
C909        N910   1.361       .  A
C909        N914   1.362       .  A
C909        C986   1.489       .  S
N910        C911   1.361       .  A
C911        N912   1.359       .  A
C911        C979   1.483       .  S
N912        C913   1.357       .  A
C913        N914   1.361       .  A
C913        C919   1.479       .  S
C915        C916   1.410       .  A
C915        C920   1.411       .  A
C915       Br922   1.929       .  S
C916       C1255   1.410       .  A
C917       C1254   1.410   1_545  A
C917        C918   1.409       .  A
C917       Br924   1.930       .  S
C918       C1257   1.408   1_545  A
C918       Br923   1.929       .  S
C919       C1256   1.408       .  A
C919        C920   1.411       .  A
C920       Br921   1.929       .  S
C925        C926   1.413       .  A
C925        C930   1.410       .  A
C925       Br932   1.929       .  S
C926        C927   1.413       .  A
C927        C928   1.408       .  A
C927       Br934   1.933       .  S
C928        C929   1.411       .  A
C928       Br933   1.933       .  S
C929        C930   1.412       .  A
C930       Br931   1.934       .  S
C935        C936   1.408       .  A
C935        C940   1.411       .  A
C935       Br942   1.933       .  S
C937        C938   1.411       .  A
C937       Br944   1.934       .  S
C938       Br943   1.934       .  S
C939        C940   1.421       .  A
C940       Br941   1.935       .  S
C945        C946   1.406       .  A
C945        C950   1.409       .  A
C945       Br952   1.931       .  S
C947        C948   1.410       .  A
C947       Br954   1.931       .  S
C948       Br953   1.931       .  S
C949        C950   1.417       .  A
C950       Br951   1.933       .  S
C955        C960   1.410       .  A
C955       Br962   1.929       .  S
C956        C957   1.406       .  A
C957        C958   1.408       .  A
C957       Br964   1.931       .  S
C958        C959   1.410       .  A
C958       Br963   1.922       .  S
C960       Br961   1.931       .  S
C965        C970   1.411       .  A
C965       Br972   1.928       .  S
C966        C967   1.408       .  A
C967        C968   1.407       .  A
C967       Br974   1.929       .  S
C968        C969   1.410       .  A
C968       Br973   1.926       .  S
C970       Br971   1.928       .  S
C975        C976   1.407       .  A
C975        C980   1.409       .  A
C975       Br982   1.928       .  S
C976       C1214   1.476       .  S
C976       C1315   1.408       .  A
C977       C1314   1.408       .  A
C977        C978   1.410       .  A
C977       Br984   1.930       .  S
C978       C1317   1.414       .  A
C978       Br983   1.932       .  S
C979       C1316   1.414       .  A
C979        C980   1.413       .  A
C980       Br981   1.930       .  S
C985        C986   1.413       .  A
C985        C990   1.411       .  A
C985       Br992   1.931       .  S
C986       C1325   1.414       .  A
C987       C1324   1.414   1_545  A
C987        C988   1.413       .  A
C987       Br994   1.930       .  S
C988       C1327   1.409   1_545  A
C988       Br993   1.929       .  S
C989       C1326   1.409       .  A
C989        C990   1.409       .  A
C990       Br991   1.930       .  S
C995       C1334   1.407       .  A
C995       C1000   1.411       .  A
C995      Br1002   1.932       .  S
C996       C1228   1.484       .  S
C996       C1333   1.407       .  A
C996        C997   1.408       .  A
C997        C998   1.414       .  A
C997      Br1004   1.929       .  S
C998        C999   1.420       .  A
C998      Br1003   1.934       .  S
C999       C1338   1.420       .  A
C1000      C1337   1.420   1_545  A
C1000     Br1001   1.933       .  S
C1005      C1006   1.410       .  A
C1005      C1010   1.410       .  A
C1005     Br1012   1.924       .  S
C1006      C1345   1.408       .  A
C1007      C1344   1.408   1_545  A
C1007      C1008   1.411       .  A
C1007     Br1014   1.924       .  S
C1008      C1347   1.409   1_545  A
C1008     Br1013   1.928       .  S
C1009      C1346   1.409       .  A
C1009      C1010   1.410       .  A
C1010     Br1011   1.931       .  S
N1015      N1021   1.318       .  A
N1017      N1019   1.317       .  A
N1017      N1018   1.319       .  A
N1017     Mn1033   2.203       .  S
N1020      C1024   1.355   1_655  A
N1021      N1022   1.323       .  A
N1021     Mn1033   2.216       .  S
N1022      C1023   1.353       .  A
C1023      C1158   1.482       .  S
N1025      N1031   1.317       .  A
N1026      C1034   1.353   1_655  A
N1027      N1028   1.322       .  A
N1027      N1029   1.318       .  A
N1027     Mn1202   2.208       .  S
N1028      C1035   1.352       .  A
N1031      N1032   1.321       .  A
N1031     Mn1202   2.207       .  S
Mn1033     N1196   2.208       .  S
Mn1033     N1200   2.207       .  S
C1035      C1175   1.483       .  S
N1036      N1042   1.317       .  A
N1038      N1040   1.316       .  A
N1038      N1039   1.322       .  A
N1038     Mn1225   2.213       .  S
N1041      C1046   1.354       .  A
N1042      N1043   1.320       .  A
N1042     Mn1225   2.200       .  S
N1043      C1045   1.349       .  A
C1046      C1108   1.498       .  S
N1047      N1053   1.316       .  A
N1048      C1058   1.354       .  A
N1049      N1050   1.323       .  A
N1049      N1051   1.317       .  A
N1049     Mn1056   2.211       .  S
N1050      C1059   1.352       .  A
N1053      N1054   1.321       .  A
N1053     Mn1056   2.202       .  S
Mn1055    Cl1057   2.558       .  S
Mn1056     N1207   2.213   1_554  S
Mn1056     N1211   2.200   1_554  S
C1058      C1128   1.482       .  S
C1060      N1061   1.360       .  A
C1060      N1065   1.359       .  A
C1060      C1135   1.477       .  S
N1061      C1062   1.360       .  A
C1062      N1063   1.358       .  A
C1062      C1095   1.484       .  S
N1063      C1064   1.357       .  A
C1064      N1065   1.359       .  A
C1064      C1125   1.474       .  S
C1066      N1067   1.359       .  A
C1066      N1071   1.357       .  A
C1066      C1115   1.474       .  S
N1067      C1068   1.360       .  A
C1068      N1069   1.359       .  A
C1068      C1105   1.482       .  S
N1069      C1070   1.359       .  A
C1070      N1071   1.358       .  A
C1070      C1098   1.481       .  S
C1072      N1073   1.359       .  A
C1072      N1077   1.361       .  A
C1072      C1178   1.481       .  S
N1073      C1074   1.358       .  A
C1074      N1075   1.359       .  A
C1074      C1085   1.479       .  S
N1075      C1076   1.361       .  A
C1076      N1077   1.362       .  A
C1076      C1168   1.498       .  S
C1078      N1079   1.361   1_565  A
C1078      N1083   1.362       .  A
C1078      C1155   1.489       .  S
N1079      C1080   1.361       .  A
C1080      N1081   1.359   1_545  A
C1080      C1148   1.483       .  S
N1081      C1082   1.357       .  A
C1082      N1083   1.361       .  A
C1082      C1088   1.479       .  S
C1084      C1085   1.410       .  A
C1084      C1089   1.411       .  A
C1084     Br1091   1.929       .  S
C1086      C1087   1.409       .  A
C1086     Br1093   1.930       .  S
C1087     Br1092   1.929       .  S
C1088      C1089   1.411       .  A
C1089     Br1090   1.929       .  S
C1094      C1095   1.413       .  A
C1094      C1099   1.410       .  A
C1094     Br1101   1.929       .  S
C1095      C1096   1.413       .  A
C1096      C1097   1.408       .  A
C1096     Br1103   1.933       .  S
C1097      C1098   1.411       .  A
C1097     Br1102   1.933       .  S
C1098      C1099   1.412       .  A
C1099     Br1100   1.934       .  S
C1104      C1105   1.408       .  A
C1104      C1109   1.411       .  A
C1104     Br1111   1.933       .  S
C1106      C1107   1.411       .  A
C1106     Br1113   1.934       .  S
C1107     Br1112   1.934       .  S
C1108      C1109   1.421       .  A
C1109     Br1110   1.935       .  S
C1114      C1115   1.406       .  A
C1114      C1119   1.409       .  A
C1114     Br1121   1.931       .  S
C1116      C1117   1.410       .  A
C1116     Br1123   1.931       .  S
C1117     Br1122   1.931       .  S
C1118      C1119   1.417       .  A
C1119     Br1120   1.933       .  S
C1124      C1129   1.410       .  A
C1124     Br1131   1.929       .  S
C1125      C1126   1.406       .  A
C1126      C1127   1.407       .  A
C1126     Br1133   1.931       .  S
C1127      C1128   1.410       .  A
C1127     Br1132   1.922       .  S
C1129     Br1130   1.931       .  S
C1134      C1139   1.411       .  A
C1134     Br1141   1.928       .  S
C1135      C1136   1.408       .  A
C1136      C1137   1.407       .  A
C1136     Br1143   1.929       .  S
C1137      C1138   1.410       .  A
C1137     Br1142   1.926       .  S
C1139     Br1140   1.928       .  S
C1144      C1145   1.407   1_565  A
C1144      C1149   1.409       .  A
C1144     Br1151   1.928       .  S
C1146      C1147   1.410       .  A
C1146     Br1153   1.930       .  S
C1147     Br1152   1.932       .  S
C1148      C1149   1.413   1_545  A
C1149     Br1150   1.930       .  S
C1154      C1155   1.413       .  A
C1154      C1159   1.411       .  A
C1154     Br1161   1.931       .  S
C1156      C1157   1.413       .  A
C1156     Br1163   1.930       .  S
C1157     Br1162   1.929       .  S
C1158      C1159   1.409       .  A
C1159     Br1160   1.930       .  S
C1164      C1169   1.411       .  A
C1164     Br1171   1.932       .  S
C1165      C1166   1.408   1_545  A
C1166      C1167   1.414       .  A
C1166     Br1173   1.929       .  S
C1167      C1168   1.420       .  A
C1167     Br1172   1.934       .  S
C1169     Br1170   1.933       .  S
C1174      C1175   1.410       .  A
C1174      C1179   1.410       .  A
C1174     Br1181   1.924       .  S
C1176      C1177   1.411       .  A
C1176     Br1183   1.924       .  S
C1177     Br1182   1.928       .  S
C1178      C1179   1.410       .  A
C1179     Br1180   1.931       .  S
N1184      N1190   1.318       .  A
N1186      N1188   1.317       .  A
N1186      N1187   1.319       .  A
N1186     Mn1202   2.203   1_556  S
N1189      C1193   1.355   1_655  A
N1190      N1191   1.323       .  A
N1190     Mn1202   2.216   1_556  S
N1191      C1192   1.353       .  A
C1192      C1327   1.482       .  S
N1194      N1200   1.317       .  A
N1195      C1203   1.353   1_655  A
N1196      N1197   1.322       .  A
N1196      N1198   1.318       .  A
N1197      C1204   1.352       .  A
N1200      N1201   1.321       .  A
C1204      C1344   1.483       .  S
N1205      N1211   1.317       .  A
N1207      N1209   1.316       .  A
N1207      N1208   1.322       .  A
N1210      C1215   1.354       .  A
N1211      N1212   1.320       .  A
N1212      C1214   1.349       .  A
C1215      C1277   1.498       .  S
N1216      N1222   1.316       .  A
N1217      C1227   1.354       .  A
N1218      N1219   1.323       .  A
N1218      N1220   1.317       .  A
N1218     Mn1225   2.211       .  S
N1219      C1228   1.352       .  A
N1222      N1223   1.321       .  A
N1222     Mn1225   2.202       .  S
Mn1224    Cl1226   2.558       .  S
C1227      C1297   1.482       .  S
C1229      N1230   1.360       .  A
C1229      N1234   1.359       .  A
C1229      C1304   1.477       .  S
N1230      C1231   1.360       .  A
C1231      N1232   1.358       .  A
C1231      C1264   1.484       .  S
N1232      C1233   1.357       .  A
C1233      N1234   1.359       .  A
C1233      C1294   1.474       .  S
C1235      N1236   1.359       .  A
C1235      N1240   1.357       .  A
C1235      C1284   1.474       .  S
N1236      C1237   1.360       .  A
C1237      N1238   1.359       .  A
C1237      C1274   1.482       .  S
N1238      C1239   1.359       .  A
C1239      N1240   1.358       .  A
C1239      C1267   1.481       .  S
C1241      N1242   1.359       .  A
C1241      N1246   1.361       .  A
C1241      C1347   1.481       .  S
N1242      C1243   1.358       .  A
C1243      N1244   1.359       .  A
C1243      C1254   1.479       .  S
N1244      C1245   1.361       .  A
C1245      N1246   1.362       .  A
C1245      C1337   1.498       .  S
C1247      N1248   1.361   1_565  A
C1247      N1252   1.362       .  A
C1247      C1324   1.489       .  S
N1248      C1249   1.361       .  A
C1249      N1250   1.359       .  A
C1249      C1317   1.483       .  S
N1250      C1251   1.357   1_545  A
C1251      N1252   1.361       .  A
C1251      C1257   1.479       .  S
C1253      C1254   1.410       .  A
C1253      C1258   1.411       .  A
C1253     Br1260   1.929       .  S
C1255      C1256   1.409       .  A
C1255     Br1262   1.930       .  S
C1256     Br1261   1.929       .  S
C1257      C1258   1.411       .  A
C1258     Br1259   1.929       .  S
C1263      C1264   1.413       .  A
C1263      C1268   1.410       .  A
C1263     Br1270   1.929       .  S
C1264      C1265   1.413       .  A
C1265      C1266   1.408       .  A
C1265     Br1272   1.933       .  S
C1266      C1267   1.411       .  A
C1266     Br1271   1.933       .  S
C1267      C1268   1.412       .  A
C1268     Br1269   1.934       .  S
C1273      C1274   1.408       .  A
C1273      C1278   1.411       .  A
C1273     Br1280   1.933       .  S
C1275      C1276   1.411       .  A
C1275     Br1282   1.934       .  S
C1276     Br1281   1.934       .  S
C1277      C1278   1.421       .  A
C1278     Br1279   1.935       .  S
C1283      C1284   1.406       .  A
C1283      C1288   1.409       .  A
C1283     Br1290   1.931       .  S
C1285      C1286   1.410       .  A
C1285     Br1292   1.931       .  S
C1286     Br1291   1.931       .  S
C1287      C1288   1.417       .  A
C1288     Br1289   1.933       .  S
C1293      C1298   1.410       .  A
C1293     Br1300   1.929       .  S
C1294      C1295   1.406       .  A
C1295      C1296   1.408       .  A
C1295     Br1302   1.931       .  S
C1296      C1297   1.410       .  A
C1296     Br1301   1.922       .  S
C1298     Br1299   1.931       .  S
C1303      C1308   1.411       .  A
C1303     Br1310   1.928       .  S
C1304      C1305   1.408       .  A
C1305      C1306   1.407       .  A
C1305     Br1312   1.929       .  S
C1306      C1307   1.410       .  A
C1306     Br1311   1.926       .  S
C1308     Br1309   1.928       .  S
C1313      C1314   1.407   1_565  A
C1313      C1318   1.409       .  A
C1313     Br1320   1.928       .  S
C1315      C1316   1.410       .  A
C1315     Br1322   1.930       .  S
C1316     Br1321   1.932       .  S
C1317      C1318   1.413   1_545  A
C1318     Br1319   1.930       .  S
C1323      C1324   1.413       .  A
C1323      C1328   1.411       .  A
C1323     Br1330   1.931       .  S
C1325      C1326   1.413       .  A
C1325     Br1332   1.930       .  S
C1326     Br1331   1.929       .  S
C1327      C1328   1.409       .  A
C1328     Br1329   1.930       .  S
C1333      C1338   1.411       .  A
C1333     Br1340   1.932       .  S
C1334      C1335   1.408   1_545  A
C1335      C1336   1.414       .  A
C1335     Br1342   1.929       .  S
C1336      C1337   1.420       .  A
C1336     Br1341   1.934       .  S
C1338     Br1339   1.933       .  S
C1343      C1344   1.410       .  A
C1343      C1348   1.410       .  A
C1343     Br1350   1.924       .  S
C1345      C1346   1.411       .  A
C1345     Br1352   1.923       .  S
C1346     Br1351   1.928       .  S
C1347      C1348   1.410       .  A
C1348     Br1349   1.931       .  S
