geometry optimzed in LAMMPS
_audit_creation_date              2020-12-01 
_audit_creation_method            'lammps2cif' 
_symmetry_space_group_name_H-M    'P1' 
_symmetry_Int_Tables_number       1 
_symmetry_cell_setting            triclinic 
loop_ 
_symmetry_equiv_pos_as_xyz 
  x,y,z 
_cell_length_a                    42.38690067 
_cell_length_b                    42.32285108311429 
_cell_length_c                    35.519407631113275 
_cell_angle_alpha                 88.71558234463271 
_cell_angle_beta                  88.55337885833644 
_cell_angle_gamma                 90.12969738817897 
loop_ 
_atom_site_label 
_atom_site_type_symbol 
_atom_site_fract_x 
_atom_site_fract_y 
_atom_site_fract_z 
_atom_site_charge 
C1          C  0.62795459  0.33214216  0.99997609     0.03000
C2          C  0.60464742  0.35568412  0.00019196    -0.13100
C3          C  0.61280916  0.38774200  0.00213782     0.00500
C4          C  0.64475948  0.39620282  0.00387372    -0.11600
C5          C  0.66847823  0.37306917  0.00386479     0.03000
C6          C  0.65984621  0.34104527  0.00192087    -0.11100
H7          H  0.57997857  0.34897394  0.99987156     0.08600
H8          H  0.65122619  0.42096818  0.00424658     0.06100
H9          H  0.67795766  0.32303326  0.00187943     0.06000
C10         C  0.84436338  0.87297857  0.50488631     0.03000
C11         C  0.85314890  0.84096865  0.50391331    -0.13100
C12         C  0.88512906  0.83224051  0.50283979     0.00500
C13         C  0.90839614  0.85590039  0.50319231    -0.11600
C14         C  0.90009968  0.88794576  0.50422198     0.03000
C15         C  0.86805393  0.89628208  0.50497063    -0.11100
H16         H  0.83509316  0.82281995  0.50377992     0.08600
H17         H  0.93310092  0.84935434  0.50249632     0.06100
H18         H  0.86156688  0.92101401  0.50546913     0.06000
C19         C  0.34557432  0.61374773  0.00289220     0.03000
C20         C  0.35444191  0.64569138  0.00456605    -0.13100
C21         C  0.38639640  0.65433092  0.00634561     0.00500
C22         C  0.40951667  0.63061909  0.00647197    -0.11600
C23         C  0.40108883  0.59860394  0.00480076     0.03000
C24         C  0.36906742  0.59040284  0.00301292    -0.11100
H25         H  0.33646142  0.66384297  0.00444594     0.08600
H26         H  0.43422976  0.63717011  0.00678228     0.06100
H27         H  0.36233765  0.56570253  0.00271013     0.06000
O28         O  0.47348359  0.03233950  0.50146300    -0.71900
O29         O  0.55673448  0.99930304  0.49933737    -0.72100
O30         O  0.51478433  0.01562998  0.44689260    -0.72000
O31         O  0.51536745  0.01597539  0.55376492    -0.72000
O32         O  0.49500678  0.96883660  0.55597222    -0.71900
O33         O  0.49732023  0.96734145  0.44908504    -0.71900
O34         O  0.53781186  0.95160786  0.50324861    -0.71900
O35         O  0.45447977  0.98465929  0.50185367    -0.72100
V36         V  0.51472740  0.01488059  0.50038346     1.35200
V37         V  0.49650899  0.96903327  0.50248739     1.35200
C38         C  0.44974045  0.01417219  0.50190753     0.77400
C39         C  0.56153482  0.96982832  0.50128388     0.77400
C40         C  0.50625666  0.99130784  0.42972000     0.77300
C41         C  0.50502992  0.99256580  0.57314067     0.77300
O42         O  0.48353538  0.00129807  0.05545503    -0.71900
O43         O  0.48361214  0.00328054  0.94858400    -0.72100
O44         O  0.46728297  0.96048042  0.00252388    -0.72000
O45         O  0.49993327  0.04415457  0.00145860    -0.72000
O46         O  0.54763994  0.02563199  0.99909615    -0.71900
O47         O  0.51499078  0.94192186  0.00208743    -0.71900
O48         O  0.53100263  0.98392122  0.94713198    -0.71900
O49         O  0.53156959  0.98358889  0.05407262    -0.72100
V50         V  0.48452885  0.00195138  0.00198047     1.35200
V51         V  0.53038234  0.98413266  0.00062997     1.35200
C52         C  0.50756122  0.99219208  0.07304305     0.77400
C53         C  0.50720642  0.99373128  0.92958747     0.77400
C54         C  0.48555309  0.93689363  0.00261642     0.77300
C55         C  0.52936846  0.04921188  0.99990638     0.77300
C56         C  0.12752329  0.15532539  0.49889319     0.03000
C57         C  0.15952531  0.14652638  0.49926609    -0.13100
C58         C  0.16825964  0.11447698  0.49969942     0.00500
C59         C  0.14460155  0.09118646  0.50012361    -0.11600
C60         C  0.11257142  0.09945761  0.49999782     0.03000
C61         C  0.10426894  0.13156324  0.49932297    -0.11100
H62         H  0.17767180  0.16460348  0.49819535     0.08600
H63         H  0.15116588  0.06646362  0.50056230     0.06100
H64         H  0.07956272  0.13806091  0.50020555     0.06000
O65         O  0.98442288  0.48515887  0.44782113    -0.71900
O66         O  0.98459212  0.48509396  0.55475191    -0.72100
O67         O  0.96770563  0.52670493  0.50074121    -0.72000
O68         O  0.00122371  0.44355129  0.50181799    -0.72000
O69         O  0.04877820  0.46273629  0.49888256    -0.71900
O70         O  0.01521458  0.54601618  0.49965528    -0.71900
O71         O  0.03239604  0.50368021  0.55268997    -0.71900
O72         O  0.03165207  0.50517553  0.44583987    -0.72100
V73         V  0.98541416  0.48550284  0.50124611     1.35200
V74         V  0.03108737  0.50403071  0.49930265     1.35200
C75         C  0.00799269  0.49527353  0.42855636     0.77400
C76         C  0.00857813  0.49427489  0.57199766     0.77400
C77         C  0.98571434  0.55058848  0.50017309     0.77300
C78         C  0.03069133  0.43888181  0.50038705     0.77300
O79         O  0.97426679  0.45441334  0.00215747    -0.71900
O80         O  0.05780530  0.48714976  0.99894923    -0.72100
O81         O  0.01617643  0.47045737  0.05394721    -0.72000
O82         O  0.01593635  0.47110557  0.94710156    -0.72000
O83         O  0.99820622  0.51919301  0.94672767    -0.71900
O84         O  0.99687768  0.51792959  0.05372664    -0.71900
O85         O  0.03928389  0.53491888  0.99957307    -0.71900
O86         O  0.95570882  0.50217809  0.00094043    -0.72100
V87         V  0.01567590  0.47171541  0.00051711     1.35200
V88         V  0.99786209  0.51762761  0.00024237     1.35200
C89         C  0.95069937  0.47268661  0.00194765     0.77400
C90         C  0.06283537  0.51661784  0.99902037     0.77400
C91         C  0.00656473  0.49407420  0.07211022     0.77300
C92         C  0.00720093  0.49529366  0.92863555     0.77300
C93         C  0.00685257  0.49386504  0.11373469    -0.03500
C94         C  0.99479450  0.51964507  0.13379196    -0.09200
C95         C  0.99538682  0.51957399  0.17312166    -0.16900
C96         C  0.00806348  0.49380715  0.19287765     0.25300
C97         C  0.02008141  0.46802352  0.17318397    -0.18500
C98         C  0.01946832  0.46801454  0.13384271    -0.07500
C99         C  0.00863291  0.49385229  0.23334574    -0.13900
C100        C  0.00876120  0.49415394  0.26725904    -0.13600
C101        C  0.00850533  0.49463323  0.30774024     0.25200
C102        C  0.98264081  0.48231388  0.32852626    -0.19000
C103        C  0.98234641  0.48268629  0.36787728    -0.07500
C104        C  0.00800451  0.49535443  0.38692302    -0.03600
C105        C  0.03384006  0.50781853  0.36577788    -0.08900
C106        C  0.03405687  0.50745987  0.32642656    -0.16500
H107        H  0.98491799  0.53986978  0.11911216     0.11600
H108        H  0.98598909  0.53962932  0.18811397     0.10900
H109        H  0.02993789  0.44795303  0.18821622     0.10800
H110        H  0.02897713  0.44785028  0.11918830     0.11400
H111        H  0.96272195  0.47236861  0.31431560     0.11400
H112        H  0.96212698  0.47291731  0.38337204     0.11400
H113        H  0.05391216  0.51778883  0.37963259     0.11500
H114        H  0.05416788  0.51711996  0.31059144     0.10400
C115        C  0.00874773  0.49414560  0.61363739    -0.03500
C116        C  0.03557436  0.50435073  0.63254370    -0.09200
C117        C  0.03555784  0.50463506  0.67189909    -0.16900
C118        C  0.00877499  0.49474039  0.69283076     0.25300
C119        C  0.98205469  0.48435659  0.67428006    -0.18500
C120        C  0.98201410  0.48404317  0.63492866    -0.07500
C121        C  0.00865050  0.49535039  0.73331818    -0.13900
C122        C  0.00844840  0.49574505  0.76724596    -0.13600
C123        C  0.00818287  0.49576712  0.80775940     0.25200
C124        C  0.00139969  0.52354733  0.82700098    -0.19000
C125        C  0.00101538  0.52345139  0.86639846    -0.07500
C126        C  0.00752318  0.49553985  0.88698808    -0.03600
C127        C  0.01438646  0.46777499  0.86737805    -0.08900
C128        C  0.01465284  0.46790580  0.82802337    -0.16500
H129        H  0.05653061  0.51221964  0.61694084     0.11600
H130        H  0.05638665  0.51266710  0.68598648     0.10900
H131        H  0.96121537  0.47660005  0.69022508     0.10800
H132        H  0.96102681  0.47602070  0.62119342     0.11400
H133        H  0.99638256  0.54525269  0.81157307     0.11400
H134        H  0.99573420  0.54520793  0.88070905     0.11400
H135        H  0.01942998  0.44591219  0.88243688     0.11500
H136        H  0.01989869  0.44627114  0.81340764     0.10400
C137        C  0.11818733  0.18921475  0.49828909    -0.03500
C138        C  0.09300932  0.19971106  0.47615730    -0.09200
C139        C  0.08351903  0.23133646  0.47646799    -0.16900
C140        C  0.09905286  0.25298699  0.49880739     0.25300
C141        C  0.12430175  0.24286951  0.52067099    -0.18500
C142        C  0.13385034  0.21122403  0.52039540    -0.07500
C143        C  0.08883059  0.28546003  0.49950930    -0.13900
C144        C  0.07956568  0.31241498  0.49995122    -0.13600
C145        C  0.06749856  0.34425136  0.50029861     0.25200
C146        C  0.08815368  0.37014620  0.49803728    -0.19000
C147        C  0.07626420  0.40100125  0.49813017    -0.07500
C148        C  0.04351327  0.40632580  0.50045945    -0.03600
C149        C  0.02298400  0.38014159  0.50279644    -0.08900
C150        C  0.03491003  0.34936421  0.50271903    -0.16500
H151        H  0.08074684  0.18348837  0.45842317     0.11600
H152        H  0.06400674  0.23887785  0.45934480     0.10900
H153        H  0.13645547  0.25938158  0.53815416     0.10800
H154        H  0.15305243  0.20384277  0.53807256     0.11400
H155        H  0.11342935  0.36649590  0.49614163     0.11400
H156        H  0.09267786  0.42065159  0.49630116     0.11400
H157        H  0.99766768  0.38341904  0.50465428     0.11500
H158        H  0.01868245  0.32953797  0.50448279     0.10400
C159        C  0.41731661  0.02715097  0.50262342    -0.03500
C160        C  0.41232254  0.05990933  0.50518539    -0.09200
C161        C  0.38169797  0.07218135  0.50581284    -0.16900
C162        C  0.35568473  0.05191574  0.50383533     0.25300
C163        C  0.36041844  0.01928886  0.50143422    -0.18500
C164        C  0.39101421  0.00695544  0.50087807    -0.07500
C165        C  0.32415165  0.06454308  0.50377533    -0.13900
C166        C  0.29750039  0.07445255  0.50312020    -0.13600
C167        C  0.26532687  0.08521168  0.50165058     0.25200
C168        C  0.24417938  0.07033459  0.47812087    -0.19000
C169        C  0.21275537  0.08015978  0.47710969    -0.07500
C170        C  0.20200055  0.10504659  0.49967159    -0.03400
C171        C  0.22350860  0.12014792  0.52289966    -0.08900
C172        C  0.25497096  0.11022741  0.52392261    -0.16500
H173        H  0.43207344  0.07606357  0.50670849     0.11600
H174        H  0.37832358  0.09747019  0.50769699     0.10900
H175        H  0.34045568  0.00337929  0.49986495     0.10800
H176        H  0.39407301  0.98164580  0.49892363     0.11400
H177        H  0.25194222  0.05102794  0.46066969     0.11400
H178        H  0.19686412  0.06835229  0.45857049     0.11400
H179        H  0.21582810  0.13913951  0.54085989     0.11500
H180        H  0.27112622  0.12187300  0.54229843     0.10400
C181        C  0.50673965  0.99090659  0.38809720    -0.03500
C182        C  0.50261104  0.96239628  0.36918521    -0.09200
C183        C  0.50305634  0.96208037  0.32981011    -0.16900
C184        C  0.50745618  0.99023584  0.30889522     0.25300
C185        C  0.51159447  0.01870084  0.32748243    -0.18500
C186        C  0.51133325  0.01904915  0.36683872    -0.07500
C187        C  0.50755735  0.98999155  0.26838727    -0.13900
C188        C  0.50754369  0.99007403  0.23444625    -0.13600
C189        C  0.50750690  0.99045707  0.19392763     0.25200
C190        C  0.47982326  0.99773673  0.17494738    -0.19000
C191        C  0.47982273  0.99834852  0.13557057    -0.07500
C192        C  0.50754509  0.99158969  0.11469266    -0.03600
C193        C  0.53523227  0.98421870  0.13402028    -0.08900
C194        C  0.53519599  0.98371210  0.17339670    -0.16500
H195        H  0.49917581  0.94033923  0.38480402     0.11600
H196        H  0.49988715  0.93990735  0.31569762     0.10900
H197        H  0.51498158  0.04063189  0.31156129     0.10800
H198        H  0.51449321  0.04136173  0.38061633     0.11400
H199        H  0.45825742  0.00298439  0.19057140     0.11400
H200        H  0.45812226  0.00402748  0.12149672     0.11400
H201        H  0.55694323  0.97896155  0.11872938     0.11500
H202        H  0.55676164  0.97808810  0.18781480     0.10400
C203        C  0.50685793  0.99393588  0.88796680    -0.03500
C204        C  0.53201803  0.98085784  0.86701414    -0.09200
C205        C  0.53144056  0.98080080  0.82767108    -0.16900
C206        C  0.50579193  0.99386124  0.80881695     0.25300
C207        C  0.48071236  0.00702115  0.82942072    -0.18500
C208        C  0.48119830  0.00703810  0.86875413    -0.07500
C209        C  0.50519412  0.99372091  0.76834878    -0.13900
C210        C  0.50481501  0.99357467  0.73443732    -0.13600
C211        C  0.50461992  0.99341514  0.69395256     0.25200
C212        C  0.49128820  0.96794988  0.67549077    -0.19000
C213        C  0.49135553  0.96766246  0.63613436    -0.07500
C214        C  0.50473896  0.99291534  0.61476694    -0.03600
C215        C  0.51796544  0.01846525  0.63358528    -0.08900
C216        C  0.51792828  0.01866503  0.67293361    -0.16500
H217        H  0.55205986  0.97054422  0.88100846     0.11600
H218        H  0.55096932  0.97054411  0.81197125     0.10900
H219        H  0.46076120  0.01721939  0.81509729     0.10800
H220        H  0.46150545  0.01731908  0.88410153     0.11400
H221        H  0.48091073  0.94828927  0.69150872     0.11400
H222        H  0.48094033  0.94769358  0.62245326     0.11400
H223        H  0.52846937  0.03823021  0.61791405     0.11500
H224        H  0.52833051  0.03848284  0.68695816     0.10400
C225        C  0.39585189  0.68806557  0.00746552    -0.03500
C226        C  0.41965777  0.69772145  0.03163504    -0.09200
C227        C  0.42944113  0.72927515  0.03169722    -0.16900
C228        C  0.41560447  0.75156934  0.00761196     0.25300
C229        C  0.39166200  0.74227197  0.98375481    -0.18500
C230        C  0.38178500  0.71072019  0.98370828    -0.07500
C231        C  0.42647654  0.78381283  0.00685233    -0.13900
C232        C  0.43626925  0.81058828  0.00602729    -0.13600
C233        C  0.44859315  0.84231134  0.00499644     0.25200
C234        C  0.42802095  0.86812263  0.00508618    -0.19000
C235        C  0.44003329  0.89893922  0.00425593    -0.07500
C236        C  0.47282068  0.90430044  0.00333539    -0.03600
C237        C  0.49331000  0.87819749  0.00315079    -0.08900
C238        C  0.48124091  0.84740963  0.00397345    -0.16500
H239        H  0.43065073  0.68086281  0.05053608     0.11600
H240        H  0.44794527  0.73623150  0.05033000     0.10900
H241        H  0.38087247  0.75932813  0.96491138     0.10800
H242        H  0.36367672  0.70389728  0.96449517     0.11400
H243        H  0.40270956  0.86443678  0.00584755     0.11400
H244        H  0.42366161  0.91854125  0.00439347     0.11400
H245        H  0.51865279  0.88155099  0.00240913     0.11500
H246        H  0.49737217  0.82758851  0.00386409     0.10400
C247        C  0.31183254  0.60455571  0.00139482    -0.03500
C248        C  0.28905946  0.61890136  0.02484805    -0.09200
C249        C  0.25745193  0.60936341  0.02427198    -0.16900
C250        C  0.24822852  0.58549848  0.00016176     0.25300
C251        C  0.27066971  0.57135682  0.97644259    -0.18500
C252        C  0.30226343  0.58078922  0.97704377    -0.07500
C253        C  0.21587937  0.57509230  0.00007264    -0.13900
C254        C  0.18906824  0.56553750  0.99978375    -0.13600
C255        C  0.15735685  0.55333850  0.99932025     0.25200
C256        C  0.15215479  0.52066648  0.99963202    -0.19000
C257        C  0.12139359  0.50869765  0.99933136    -0.07500
C258        C  0.09540434  0.52930385  0.99874470    -0.03600
C259        C  0.10086325  0.56211854  0.99831066    -0.08900
C260        C  0.13166432  0.57403524  0.99858635    -0.16500
H261        H  0.29581266  0.63699802  0.04417957     0.11600
H262        H  0.24028587  0.62039675  0.04283615     0.10900
H263        H  0.26377820  0.55291809  0.95761571     0.10800
H264        H  0.31921450  0.56959040  0.95836414     0.11400
H265        H  0.17187416  0.50443325  0.00018050     0.11400
H266        H  0.11796838  0.48333031  0.99970977     0.11400
H267        H  0.08135016  0.57857867  0.99785114     0.11500
H268        H  0.13542804  0.59936699  0.99830632     0.10400
C269        C  0.92496591  0.91267047  0.50409688    -0.03500
C270        C  0.95127834  0.90923319  0.52718407    -0.09200
C271        C  0.97489914  0.93236091  0.52671728    -0.16900
C272        C  0.97257725  0.95912740  0.50310249     0.25300
C273        C  0.94646259  0.96276915  0.48006891    -0.18500
C274        C  0.92275698  0.93972367  0.48059456    -0.07500
C275        C  0.99695531  0.98286390  0.50252084    -0.13900
C276        C  0.01723344  0.00289708  0.50203636    -0.13600
C277        C  0.04119206  0.02705586  0.50148606     0.25200
C278        C  0.03809668  0.05403802  0.47839079    -0.19000
C279        C  0.06124117  0.07764012  0.47797207    -0.07500
C280        C  0.08783533  0.07452427  0.50066405    -0.03600
C281        C  0.09071609  0.04730016  0.52380999    -0.08900
C282        C  0.06753621  0.02373423  0.52418842    -0.16500
H283        H  0.95340874  0.88880311  0.54584229     0.11600
H284        H  0.99495766  0.92936476  0.54475663     0.10900
H285        H  0.94446859  0.98336933  0.46162830     0.10800
H286        H  0.90294502  0.94279447  0.46221632     0.11400
H287        H  0.01782103  0.05680956  0.46065347     0.11400
H288        H  0.05856026  0.09812128  0.45952208     0.11400
H289        H  0.11069588  0.04440981  0.54196298     0.11500
H290        H  0.07010974  0.00299208  0.54227145     0.10400
C291        C  0.81053970  0.88221413  0.50523874    -0.03500
C292        C  0.78902228  0.86699532  0.48209821    -0.09200
C293        C  0.75740029  0.87640093  0.48161860    -0.16900
C294        C  0.74684974  0.90107004  0.50428749     0.25300
C295        C  0.76800746  0.91614107  0.52765275    -0.18500
C296        C  0.79961786  0.90679935  0.52816010    -0.07500
C297        C  0.71447901  0.91131905  0.50323302    -0.13900
C298        C  0.68764980  0.92075608  0.50252703    -0.13600
C299        C  0.65594551  0.93295635  0.50193333     0.25200
C300        C  0.65092051  0.96562975  0.50037518    -0.19000
C301        C  0.62020939  0.97762863  0.50006552    -0.07500
C302        C  0.59405134  0.95706806  0.50134843    -0.03600
C303        C  0.59931819  0.92424881  0.50284324    -0.08900
C304        C  0.63007843  0.91229718  0.50312237    -0.16500
H305        H  0.79678111  0.84827723  0.46378839     0.11600
H306        H  0.74126541  0.86462798  0.46332720     0.10900
H307        H  0.76010141  0.93521368  0.54538215     0.10800
H308        H  0.81548805  0.91869723  0.54663511     0.11400
H309        H  0.67075195  0.98185123  0.49946776     0.11400
H310        H  0.61695762  0.00299954  0.49891987     0.11400
H311        H  0.57968410  0.90781268  0.50383870     0.11500
H312        H  0.63367561  0.88696222  0.50434006     0.10400
C313        C  0.89444010  0.79849878  0.50117121    -0.03500
C314        C  0.87920110  0.77551860  0.52441585    -0.09200
C315        C  0.88899242  0.74396916  0.52381685    -0.16900
C316        C  0.91399861  0.73500199  0.49987682     0.25300
C317        C  0.92889679  0.75761605  0.47618051    -0.18500
C318        C  0.91921433  0.78914068  0.47680982    -0.07500
C319        C  0.92493703  0.70280900  0.50013821    -0.13900
C320        C  0.93499603  0.67616827  0.50027415    -0.13600
C321        C  0.94768322  0.64462615  0.50029414     0.25200
C322        C  0.98033639  0.63999794  0.50150706    -0.19000
C323        C  0.99274368  0.60940261  0.50140371    -0.07500
C324        C  0.97260684  0.58299681  0.50015120    -0.03600
C325        C  0.93981072  0.58788351  0.49893976    -0.08900
C326        C  0.92746128  0.61851013  0.49898858    -0.16500
H327        H  0.86023827  0.78209091  0.54367008     0.11600
H328        H  0.87732172  0.72666191  0.54232455     0.10900
H329        H  0.94818869  0.75093041  0.45743595     0.10800
H330        H  0.93107270  0.80623154  0.45819572     0.11400
H331        H  0.99621697  0.66004168  0.50251501     0.11400
H332        H  0.01807939  0.60642690  0.50238113     0.11400
H333        H  0.92369284  0.56805196  0.49790569     0.11500
H334        H  0.90215221  0.62181437  0.49800328     0.10400
C335        C  0.58796085  0.41238179  0.00246311    -0.03500
C336        C  0.58991507  0.43811357  0.02670575    -0.09200
C337        C  0.56647166  0.46127296  0.02708277    -0.16900
C338        C  0.54082416  0.45903005  0.00324835     0.25300
C339        C  0.53865779  0.43354830  0.97901144    -0.18500
C340        C  0.56206396  0.41034086  0.97861067    -0.07500
C341        C  0.51674566  0.48288580  0.00367169    -0.13900
C342        C  0.49660803  0.50291777  0.00404341    -0.13600
C343        C  0.47259392  0.52683770  0.00438401     0.25200
C344        C  0.44686108  0.52452694  0.98069001    -0.19000
C345        C  0.42355526  0.54782498  0.98086366    -0.07500
C346        C  0.42573136  0.57376082  0.00476865    -0.03600
C347        C  0.45168259  0.57583453  0.02853432    -0.08900
C348        C  0.47495660  0.55249688  0.02832417    -0.16500
H349        H  0.60935682  0.44010218  0.04572140     0.11600
H350        H  0.56830809  0.48086902  0.04601676     0.10900
H351        H  0.51893020  0.43165478  0.96038130     0.10800
H352        H  0.56012052  0.39101255  0.95932791     0.11400
H353        H  0.44487295  0.50479084  0.96198637     0.11400
H354        H  0.40407011  0.54579476  0.96191873     0.11400
H355        H  0.45378967  0.59531038  0.04757922     0.11500
H356        H  0.49475101  0.55444441  0.04684562     0.10400
C357        C  0.91815439  0.45987828  0.00284561    -0.03500
C358        C  0.89205148  0.48033775  0.00219757    -0.09200
C359        C  0.86132219  0.46818938  0.00303306    -0.16900
C360        C  0.85626946  0.43548537  0.00454403     0.25300
C361        C  0.88208522  0.41494258  0.00518753    -0.18500
C362        C  0.91284158  0.42703419  0.00434351    -0.07500
C363        C  0.82459418  0.42307750  0.00538345    -0.13900
C364        C  0.79785591  0.41324110  0.00594171    -0.13600
C365        C  0.76563596  0.40236499  0.00632850     0.25200
C366        C  0.75677029  0.37768250  0.98320024    -0.19000
C367        C  0.72525813  0.36782190  0.98272825    -0.07500
C368        C  0.70218558  0.38258923  0.00538484    -0.03600
C369        C  0.71143899  0.40712468  0.02887812    -0.08900
C370        C  0.74293544  0.41693722  0.02929771    -0.16500
H371        H  0.89536048  0.50572002  0.00102955     0.11600
H372        H  0.84150882  0.48430695  0.00250101     0.10900
H373        H  0.87845105  0.38959022  0.00633901     0.10800
H374        H  0.93243803  0.41067536  0.00487363     0.11400
H375        H  0.77413649  0.36630562  0.96521537     0.11400
H376        H  0.71882939  0.34915833  0.96400538     0.11400
H377        H  0.69432594  0.41867231  0.04702160     0.11500
H378        H  0.74953935  0.43601757  0.04736855     0.10400
C379        C  0.54207437  0.08184264  0.99906788    -0.03500
C380        C  0.52154953  0.10791742  0.99967578    -0.09200
C381        C  0.53356380  0.13873776  0.99897294    -0.16900
C382        C  0.56620559  0.14391833  0.99766395     0.25300
C383        C  0.58681034  0.11813161  0.99699123    -0.18500
C384        C  0.57485117  0.08728151  0.99767968    -0.07500
C385        C  0.57850283  0.17568354  0.99716138    -0.13900
C386        C  0.58832456  0.20246384  0.99689743    -0.13600
C387        C  0.59916775  0.23474397  0.99674095     0.25200
C388        C  0.62351843  0.24369109  0.02023185    -0.19000
C389        C  0.63328754  0.27527924  0.02090768    -0.07500
C390        C  0.61872218  0.29833491  0.99813633    -0.03600
C391        C  0.59457900  0.28899205  0.97424013    -0.08900
C392        C  0.58488061  0.25743027  0.97358899    -0.16500
H393        H  0.49621310  0.10451635  0.00071988     0.11600
H394        H  0.51739084  0.15851842  0.99950052     0.10900
H395        H  0.61211451  0.12186220  0.99598204     0.10800
H396        H  0.59125704  0.06771296  0.99717450     0.11400
H397        H  0.63469283  0.22633504  0.03834127     0.11400
H398        H  0.65168256  0.28179208  0.03988856     0.11400
H399        H  0.58321926  0.30610875  0.95600197     0.11500
H400        H  0.56608020  0.25076914  0.95521865     0.10400
loop_ 
_geom_bond_atom_site_label_1 
_geom_bond_atom_site_label_2 
_geom_bond_distance 
_geom_bond_site_symmetry_2 
_ccdc_geom_bond_type 
C1            C2   1.405   1_556  A
C1            C6   1.406   1_556  A
C1          C390   1.486       .  S
C2            C3   1.403       .  A
C2            H7   1.083   1_554  S
C3            C4   1.403       .  A
C3          C335   1.484       .  S
C4            C5   1.405       .  A
C4            H8   1.083       .  S
C5            C6   1.407       .  A
C5          C368   1.486       .  S
C6            H9   1.083       .  S
C10          C11   1.407       .  A
C10          C15   1.406       .  A
C10         C291   1.487       .  S
C11          C12   1.406       .  A
C11          H16   1.083       .  S
C12          C13   1.404       .  A
C12         C313   1.485       .  S
C13          C14   1.403       .  A
C13          H17   1.084       .  S
C14          C15   1.404       .  A
C14         C269   1.483       .  S
C15          H18   1.083       .  S
C19          C20   1.405       .  A
C19          C24   1.404       .  A
C19         C247   1.484       .  S
C20          C21   1.405       .  A
C20          H25   1.083       .  S
C21          C22   1.404       .  A
C21         C225   1.484       .  S
C22          C23   1.403       .  A
C22          H26   1.083       .  S
C23          C24   1.404       .  A
C23         C346   1.484       .  S
C24          H27   1.083       .  S
O28          V36   1.899       .  S
O28          C38   1.265       .  A
O29          V36   1.900   1_565  S
O29          C39   1.265       .  A
O30          V36   1.899       .  S
O30          C40   1.265   1_545  A
O31          V36   1.899       .  S
O31          C41   1.265   1_545  A
O32          V37   1.899       .  S
O32          C41   1.265       .  A
O33          V37   1.899       .  S
O33          C40   1.265       .  A
O34          V37   1.902       .  S
O34          C39   1.265       .  A
O35          V37   1.902       .  S
O35          C38   1.266   1_565  A
V36          V37   2.086   1_545  T
C38         C159   1.481       .  S
C39         C302   1.481       .  S
C40         C181   1.479       .  S
C41         C214   1.479       .  S
O42          V50   1.898       .  S
O42          C52   1.265   1_545  A
O43          V50   1.898   1_556  S
O43          C53   1.264   1_545  A
O44          V50   1.899   1_565  S
O44          C54   1.265       .  A
O45          V50   1.900       .  S
O45          C55   1.265   1_554  A
O46          V51   1.900   1_546  S
O46          C55   1.265       .  A
O47          V51   1.900       .  S
O47          C54   1.265       .  A
O48          V51   1.900   1_556  S
O48          C53   1.265       .  A
O49          V51   1.900       .  S
O49          C52   1.265       .  A
V50          V51   2.086   1_545  T
C52         C192   1.479       .  S
C53         C203   1.479       .  S
C54         C236   1.480       .  S
C55         C379   1.481       .  S
C56          C57   1.408       .  A
C56          C61   1.406       .  A
C56         C137   1.489       .  S
C57          C58   1.407       .  A
C57          H62   1.083       .  S
C58          C59   1.404       .  A
C58         C170   1.486       .  S
C59          C60   1.403       .  A
C59          H63   1.083       .  S
C60          C61   1.404       .  A
C60         C280   1.485       .  S
C61          H64   1.083       .  S
O65          V73   1.900       .  S
O65          C75   1.265   1_655  A
O66          V73   1.900       .  S
O66          C76   1.265   1_655  A
O67          V73   1.900       .  S
O67          C77   1.265       .  A
O68          V73   1.899   1_455  S
O68          C78   1.265       .  A
O69          V74   1.904       .  S
O69          C78   1.266       .  A
O70          V74   1.902       .  S
O70          C77   1.265   1_455  A
O71          V74   1.898       .  S
O71          C76   1.265       .  A
O72          V74   1.898       .  S
O72          C75   1.264       .  A
V73          V74   2.086   1_655  T
C75         C104   1.479       .  S
C76         C115   1.479       .  S
C77         C324   1.481       .  S
C78         C148   1.482       .  S
O79          V87   1.899   1_655  S
O79          C89   1.265       .  A
O80          V87   1.899   1_556  S
O80          C90   1.265       .  A
O81          V87   1.898       .  S
O81          C91   1.264       .  A
O82          V87   1.898   1_556  S
O82          C92   1.265       .  A
O83          V88   1.900   1_556  S
O83          C92   1.265   1_655  A
O84          V88   1.899       .  S
O84          C91   1.265   1_655  A
O85          V88   1.900   1_456  S
O85          C90   1.265       .  A
O86          V88   1.901       .  S
O86          C89   1.265       .  A
V87          V88   2.086   1_455  T
C89         C357   1.480       .  S
C90         C258   1.480       .  S
C91          C93   1.479       .  S
C92         C126   1.479       .  S
C93          C94   1.406   1_455  A
C93          C98   1.407       .  A
C94          C95   1.398       .  A
C94         H107   1.083       .  S
C95          C96   1.399   1_655  A
C95         H108   1.083       .  S
C96          C97   1.399       .  A
C96          C99   1.438       .  S
C97          C98   1.398       .  A
C97         H109   1.083       .  S
C98         H110   1.083       .  S
C99         C100   1.205       .  T
C100        C101   1.438       .  S
C101        C102   1.399   1_455  A
C101        C106   1.399       .  A
C102        C103   1.398       .  A
C102        H111   1.084       .  S
C103        C104   1.407   1_655  A
C103        H112   1.083       .  S
C104        C105   1.407       .  A
C105        C106   1.398       .  A
C105        H113   1.083       .  S
C106        H114   1.084       .  S
C115        C116   1.407       .  A
C115        C120   1.407   1_455  A
C116        C117   1.398       .  A
C116        H129   1.083       .  S
C117        C118   1.399       .  A
C117        H130   1.083       .  S
C118        C119   1.399   1_455  A
C118        C121   1.439       .  S
C119        C120   1.398       .  A
C119        H131   1.083       .  S
C120        H132   1.083       .  S
C121        C122   1.205       .  T
C122        C123   1.439       .  S
C123        C124   1.400       .  A
C123        C128   1.399       .  A
C124        C125   1.399       .  A
C124        H133   1.083   1_455  S
C125        C126   1.407       .  A
C125        H134   1.083   1_455  S
C126        C127   1.407       .  A
C127        C128   1.398       .  A
C127        H135   1.083       .  S
C128        H136   1.083       .  S
C137        C138   1.408       .  A
C137        C142   1.408       .  A
C138        C139   1.399       .  A
C138        H151   1.083       .  S
C139        C140   1.400       .  A
C139        H152   1.083       .  S
C140        C141   1.400       .  A
C140        C143   1.443       .  S
C141        C142   1.400       .  A
C141        H153   1.083       .  S
C142        H154   1.083       .  S
C143        C144   1.208       .  T
C144        C145   1.443       .  S
C145        C146   1.401       .  A
C145        C150   1.399       .  A
C146        C147   1.401       .  A
C146        H155   1.083       .  S
C147        C148   1.408       .  A
C147        H156   1.083       .  S
C148        C149   1.407       .  A
C149        C150   1.398       .  A
C149        H157   1.083   1_455  S
C150        H158   1.084       .  S
C159        C160   1.408       .  A
C159        C164   1.407       .  A
C160        C161   1.399       .  A
C160        H173   1.083       .  S
C161        C162   1.400       .  A
C161        H174   1.083       .  S
C162        C163   1.400       .  A
C162        C165   1.441       .  S
C163        C164   1.399       .  A
C163        H175   1.083       .  S
C164        H176   1.083   1_545  S
C165        C166   1.206       .  T
C166        C167   1.441       .  S
C167        C168   1.399       .  A
C167        C172   1.401       .  A
C168        C169   1.397       .  A
C168        H177   1.083       .  S
C169        C170   1.407       .  A
C169        H178   1.083       .  S
C170        C171   1.407       .  A
C171        C172   1.400       .  A
C171        H179   1.083       .  S
C172        H180   1.083       .  S
C181        C182   1.407       .  A
C181        C186   1.406   1_565  A
C182        C183   1.399       .  A
C182        H195   1.083       .  S
C183        C184   1.400       .  A
C183        H196   1.083       .  S
C184        C185   1.399   1_565  A
C184        C187   1.439       .  S
C185        C186   1.398       .  A
C185        H197   1.083       .  S
C186        H198   1.083       .  S
C187        C188   1.206       .  T
C188        C189   1.439       .  S
C189        C190   1.400       .  A
C189        C194   1.399       .  A
C190        C191   1.398       .  A
C190        H199   1.083   1_565  S
C191        C192   1.407       .  A
C191        H200   1.083   1_565  S
C192        C193   1.407       .  A
C193        C194   1.398       .  A
C193        H201   1.083       .  S
C194        H202   1.083       .  S
C203        C204   1.407       .  A
C203        C208   1.407   1_565  A
C204        C205   1.398       .  A
C204        H217   1.083       .  S
C205        C206   1.400       .  A
C205        H218   1.083       .  S
C206        C207   1.399   1_565  A
C206        C209   1.438       .  S
C207        C208   1.398       .  A
C207        H219   1.083       .  S
C208        H220   1.083       .  S
C209        C210   1.205       .  T
C210        C211   1.438       .  S
C211        C212   1.399       .  A
C211        C216   1.399   1_565  A
C212        C213   1.398       .  A
C212        H221   1.084       .  S
C213        C214   1.407       .  A
C213        H222   1.083       .  S
C214        C215   1.407   1_565  A
C215        C216   1.398       .  A
C215        H223   1.083       .  S
C216        H224   1.084       .  S
C225        C226   1.407       .  A
C225        C230   1.407   1_554  A
C226        C227   1.398       .  A
C226        H239   1.083       .  S
C227        C228   1.399       .  A
C227        H240   1.083       .  S
C228        C229   1.400   1_554  A
C228        C231   1.439       .  S
C229        C230   1.399       .  A
C229        H241   1.083       .  S
C230        H242   1.083       .  S
C231        C232   1.205       .  T
C232        C233   1.439       .  S
C233        C234   1.399       .  A
C233        C238   1.400       .  A
C234        C235   1.398       .  A
C234        H243   1.083       .  S
C235        C236   1.407       .  A
C235        H244   1.083       .  S
C236        C237   1.407       .  A
C237        C238   1.398       .  A
C237        H245   1.083       .  S
C238        H246   1.083       .  S
C247        C248   1.407       .  A
C247        C252   1.407   1_554  A
C248        C249   1.399       .  A
C248        H261   1.083       .  S
C249        C250   1.400       .  A
C249        H262   1.083       .  S
C250        C251   1.399   1_554  A
C250        C253   1.439       .  S
C251        C252   1.397       .  A
C251        H263   1.083       .  S
C252        H264   1.083       .  S
C253        C254   1.206   1_554  T
C254        C255   1.439       .  S
C255        C256   1.400       .  A
C255        C260   1.400       .  A
C256        C257   1.398       .  A
C256        H265   1.083   1_556  S
C257        C258   1.407       .  A
C257        H266   1.083       .  S
C258        C259   1.407       .  A
C259        C260   1.399       .  A
C259        H267   1.083       .  S
C260        H268   1.083       .  S
C269        C270   1.407       .  A
C269        C274   1.406       .  A
C270        C271   1.398       .  A
C270        H283   1.083       .  S
C271        C272   1.400       .  A
C271        H284   1.083       .  S
C272        C273   1.400       .  A
C272        C275   1.439       .  S
C273        C274   1.398       .  A
C273        H285   1.083       .  S
C274        H286   1.083       .  S
C275        C276   1.206   1_665  T
C276        C277   1.439       .  S
C277        C278   1.399       .  A
C277        C282   1.399       .  A
C278        C279   1.398       .  A
C278        H287   1.083       .  S
C279        C280   1.407       .  A
C279        H288   1.083       .  S
C280        C281   1.408       .  A
C281        C282   1.398       .  A
C281        H289   1.083       .  S
C282        H290   1.083       .  S
C291        C292   1.408       .  A
C291        C296   1.407       .  A
C292        C293   1.399       .  A
C292        H305   1.083       .  S
C293        C294   1.400       .  A
C293        H306   1.083       .  S
C294        C295   1.400       .  A
C294        C297   1.441       .  S
C295        C296   1.398       .  A
C295        H307   1.083       .  S
C296        H308   1.083       .  S
C297        C298   1.207       .  T
C298        C299   1.441       .  S
C299        C300   1.400       .  A
C299        C304   1.400       .  A
C300        C301   1.399       .  A
C300        H309   1.084       .  S
C301        C302   1.407       .  A
C301        H310   1.083   1_565  S
C302        C303   1.407       .  A
C303        C304   1.400       .  A
C303        H311   1.083       .  S
C304        H312   1.083       .  S
C313        C314   1.407       .  A
C313        C318   1.407       .  A
C314        C315   1.400       .  A
C314        H327   1.083       .  S
C315        C316   1.400       .  A
C315        H328   1.083       .  S
C316        C317   1.399       .  A
C316        C319   1.440       .  S
C317        C318   1.397       .  A
C317        H329   1.084       .  S
C318        H330   1.083       .  S
C319        C320   1.206       .  T
C320        C321   1.440       .  S
C321        C322   1.400       .  A
C321        C326   1.399       .  A
C322        C323   1.399       .  A
C322        H331   1.084       .  S
C323        C324   1.407       .  A
C323        H332   1.083   1_655  S
C324        C325   1.407       .  A
C325        C326   1.399       .  A
C325        H333   1.083       .  S
C326        H334   1.084       .  S
C335        C336   1.407       .  A
C335        C340   1.407   1_554  A
C336        C337   1.397       .  A
C336        H349   1.083       .  S
C337        C338   1.399       .  A
C337        H350   1.083       .  S
C338        C339   1.399   1_554  A
C338        C341   1.437       .  S
C339        C340   1.398       .  A
C339        H351   1.083       .  S
C340        H352   1.083       .  S
C341        C342   1.204       .  T
C342        C343   1.437       .  S
C343        C344   1.399   1_554  A
C343        C348   1.399       .  A
C344        C345   1.397       .  A
C344        H353   1.083       .  S
C345        C346   1.407   1_556  A
C345        H354   1.083       .  S
C346        C347   1.407       .  A
C347        C348   1.398       .  A
C347        H355   1.083       .  S
C348        H356   1.083       .  S
C357        C358   1.407       .  A
C357        C362   1.407       .  A
C358        C359   1.399       .  A
C358        H371   1.083       .  S
C359        C360   1.400       .  A
C359        H372   1.083       .  S
C360        C361   1.399       .  A
C360        C363   1.440       .  S
C361        C362   1.399       .  A
C361        H373   1.083       .  S
C362        H374   1.083       .  S
C363        C364   1.206       .  T
C364        C365   1.440       .  S
C365        C366   1.400   1_554  A
C365        C370   1.399       .  A
C366        C367   1.399       .  A
C366        H375   1.083       .  S
C367        C368   1.407   1_556  A
C367        H376   1.083       .  S
C368        C369   1.408       .  A
C369        C370   1.398       .  A
C369        H377   1.083       .  S
C370        H378   1.083       .  S
C379        C380   1.407       .  A
C379        C384   1.407       .  A
C380        C381   1.399       .  A
C380        H393   1.083   1_556  S
C381        C382   1.400       .  A
C381        H394   1.083       .  S
C382        C383   1.400       .  A
C382        C385   1.440       .  S
C383        C384   1.399       .  A
C383        H395   1.083       .  S
C384        H396   1.083       .  S
C385        C386   1.206       .  T
C386        C387   1.440       .  S
C387        C388   1.400   1_556  A
C387        C392   1.399       .  A
C388        C389   1.400       .  A
C388        H397   1.083       .  S
C389        C390   1.407   1_554  A
C389        H398   1.083       .  S
C390        C391   1.408       .  A
C391        C392   1.398       .  A
C391        H399   1.083       .  S
C392        H400   1.083       .  S
