geometry optimzed in LAMMPS
_audit_creation_date              2020-12-01 
_audit_creation_method            'lammps2cif' 
_symmetry_space_group_name_H-M    'P1' 
_symmetry_Int_Tables_number       1 
_symmetry_cell_setting            triclinic 
loop_ 
_symmetry_equiv_pos_as_xyz 
  x,y,z 
_cell_length_a                    46.05073359 
_cell_length_b                    45.5848099307992 
_cell_length_c                    85.47822196548077 
_cell_angle_alpha                 89.82427703161149 
_cell_angle_beta                  89.91860431610523 
_cell_angle_gamma                 87.64735703864861 
loop_ 
_atom_site_label 
_atom_site_type_symbol 
_atom_site_fract_x 
_atom_site_fract_y 
_atom_site_fract_z 
_atom_site_charge 
C1          C  0.24807913  0.49884716  0.25145016    -0.01800
C2          C  0.46421800  0.26201776  0.99368497     0.03000
C3          C  0.46479280  0.26206115  0.01027252     0.02900
C4          C  0.49179543  0.25966723  0.01791813    -0.17600
C5          C  0.01698027  0.25810336  0.00953941     0.03000
C6          C  0.01666032  0.25867666  0.99295111     0.02900
C7          C  0.49058399  0.26037492  0.98543221    -0.17600
H8          H  0.49014106  0.26064640  0.97273841     0.05000
H9          H  0.49225666  0.25929026  0.03060690     0.05000
C10         C  0.24489419  0.50080058  0.74953594    -0.01800
C11         C  0.49360003  0.25177348  0.75309149    -0.01800
C12         C  0.25039849  0.47471280  0.99350509     0.03000
C13         C  0.24992693  0.47440535  0.01009508     0.02900
C14         C  0.25398031  0.50063632  0.01822656    -0.17600
C15         C  0.25731651  0.02528109  0.01036459     0.03000
C16         C  0.25623708  0.02640582  0.99378464     0.02900
C17         C  0.25588929  0.50119467  0.98580120    -0.17600
H18         H  0.25656001  0.50152545  0.97311039     0.05000
H19         H  0.25325612  0.50043035  0.03091783     0.05000
O20         O  0.31971239  0.26140946  0.89595046    -0.74600
O21         O  0.28179725  0.26323648  0.91286839    -0.53500
C22         C  0.30902630  0.26425434  0.90988033     0.79100
O23         O  0.24145588  0.33307440  0.83921240    -0.59200
O24         O  0.24552329  0.29582735  0.82140918    -0.52200
C25         C  0.24459182  0.32325971  0.82517208     0.71100
O26         O  0.23566945  0.33691456  0.89196209    -0.73800
O27         O  0.23457326  0.30108161  0.91064939    -0.54300
C28         C  0.23455684  0.32804707  0.90628962     0.77100
O29         O  0.32593223  0.25327722  0.84318482    -0.58900
O30         O  0.29197432  0.24821206  0.82398732    -0.52000
C31         C  0.31839403  0.25024502  0.82879383     0.73700
Zr32       Zr  0.30253041  0.25667165  0.86878083     2.54700
O33         O  0.32987729  0.30118809  0.86760428    -0.79500
O34         O  0.34600218  0.22468783  0.87096506    -0.92900
Zr35       Zr  0.23605814  0.31456474  0.86588018     2.64700
O36         O  0.26471877  0.35817274  0.86728920    -0.97800
O37         O  0.19113186  0.34443329  0.86396868    -0.79900
O38         O  0.26842794  0.28713398  0.88235643    -0.83300
O39         O  0.27098521  0.28456181  0.85208722    -2.18000
O40         O  0.24902540  0.16860919  0.84302737    -0.66700
O41         O  0.24516531  0.20288040  0.82374866    -0.51200
C42         C  0.24702765  0.17593492  0.82848908     0.72100
O43         O  0.15973310  0.24463560  0.89235662    -0.59600
O44         O  0.19396966  0.25270577  0.91074323    -0.51500
C45         C  0.16784851  0.24744254  0.90670775     0.73900
O46         O  0.16265968  0.25288878  0.83932061    -0.71000
O47         O  0.19969622  0.25153341  0.82144293    -0.49600
C48         C  0.17250777  0.25294793  0.82519771     0.75300
O49         O  0.24980682  0.17263282  0.89560110    -0.66300
O50         O  0.24599046  0.21074733  0.91285547    -0.53500
C51         C  0.24896740  0.18324442  0.90957651     0.73700
Zr52       Zr  0.24674072  0.19177066  0.86876944     2.77500
O53         O  0.20557410  0.16038340  0.87151822    -0.97000
O54         O  0.28348111  0.15185208  0.86879577    -0.77900
Zr55       Zr  0.18098323  0.25039116  0.86615680     2.70100
O56         O  0.14570419  0.21232968  0.86381281    -0.79100
O57         O  0.14272935  0.28885162  0.86714540    -0.98200
Zr58       Zr  0.23966412  0.25501338  0.89707842     2.21500
Zr59       Zr  0.24443896  0.25063253  0.83690295     2.11100
O60         O  0.21473347  0.21959740  0.85215884    -2.46900
O61         O  0.21228748  0.22150121  0.88262008    -0.78900
O62         O  0.27650011  0.22257838  0.85368573    -0.71100
O63         O  0.20691430  0.28397028  0.88127178    -2.32000
O64         O  0.27454714  0.22434059  0.88369288    -2.28300
O65         O  0.20969588  0.28143674  0.85060801    -0.72900
H66         H  0.28282266  0.29644042  0.84549782     0.79100
H67         H  0.19357173  0.29581655  0.88772901     0.80200
H68         H  0.20390525  0.20664737  0.84547209     0.82500
H69         H  0.28719694  0.21357330  0.89091381     0.80100
H70         H  0.18859792  0.34833575  0.85264373     0.43100
H71         H  0.14409819  0.29751191  0.87771275     0.42100
H72         H  0.12669719  0.22324105  0.86313924     0.41700
H73         H  0.19800214  0.15804154  0.86078504     0.39700
H74         H  0.30126057  0.16096326  0.86488810     0.42800
H75         H  0.34073955  0.20932734  0.87854681     0.37600
H76         H  0.32127258  0.31391386  0.87591378     0.43700
H77         H  0.28431098  0.35149290  0.86370122     0.40100
H78         H  0.21428487  0.14091568  0.87440065     0.45000
H79         H  0.36021643  0.23651069  0.87658347     0.43800
H80         H  0.25714291  0.37153695  0.85896395     0.43900
H81         H  0.14953318  0.30428012  0.86002749     0.44300
O82         O  0.32067926  0.25433128  0.16263011    -0.74600
O83         O  0.28459499  0.25079193  0.18079451    -0.53500
C84         C  0.31156268  0.25194655  0.17683875     0.79100
O85         O  0.22409132  0.33240596  0.10944116    -0.59200
O86         O  0.23406374  0.29682433  0.09150472    -0.52200
C87         C  0.22703052  0.32348759  0.09519880     0.71100
O88         O  0.23514360  0.33265076  0.16221260    -0.73800
O89         O  0.23726717  0.29626181  0.18070441    -0.54300
C90         C  0.23681794  0.32333771  0.17642114     0.77100
O91         O  0.32127209  0.25961002  0.10968481    -0.58900
O92         O  0.28528116  0.25668605  0.09153538    -0.52000
C93         C  0.31201343  0.25913169  0.09543838     0.73700
Zr94       Zr  0.30041681  0.25689225  0.13615761     2.54700
O95         O  0.32993207  0.29986335  0.13810324    -0.79500
O96         O  0.34277851  0.22391489  0.13346699    -0.92900
Zr97       Zr  0.23226326  0.31265157  0.13589170     2.64700
O98         O  0.26802978  0.35049412  0.13442746    -0.97800
O99         O  0.19161112  0.34821572  0.13832605    -0.79900
O100        O  0.26611970  0.28467036  0.15133474    -0.83300
O101        O  0.26717683  0.28570036  0.12080758    -2.18000
O102        O  0.25901939  0.17128131  0.10950161    -0.66700
O103        O  0.24893162  0.20666322  0.09134967    -0.51200
C104        C  0.25679497  0.18020937  0.09517554     0.72100
O105        O  0.15793202  0.24632312  0.16160801    -0.59600
O106        O  0.19305647  0.24875730  0.18036981    -0.51500
C107        C  0.16635120  0.24750595  0.17594738     0.73900
O108        O  0.15941760  0.24909906  0.10872343    -0.71000
O109        O  0.19661693  0.24902185  0.09107655    -0.49600
C110        C  0.16949709  0.24921799  0.09461734     0.75300
O111        O  0.24631310  0.16888937  0.16251212    -0.66300
O112        O  0.24218180  0.20502680  0.18090849    -0.53500
C113        C  0.24444047  0.17787717  0.17681538     0.73700
Zr114      Zr  0.24719151  0.18972804  0.13590300     2.77500
O115        O  0.20967767  0.15402999  0.13304380    -0.97000
O116        O  0.28484285  0.15108824  0.13888993    -0.77900
Zr117      Zr  0.17926940  0.24589002  0.13543719     2.70100
O118        O  0.15213297  0.20122227  0.13454434    -0.79100
O119        O  0.13494212  0.27674650  0.13675304    -0.98200
Zr120      Zr  0.23912928  0.25067068  0.16615231     2.21500
Zr121      Zr  0.24071868  0.25156193  0.10609809     2.11100
O122        O  0.21318514  0.21730227  0.12035333    -2.46900
O123        O  0.21249832  0.21726251  0.15100194    -0.78900
O124        O  0.27480909  0.22291021  0.12112571    -0.71100
O125        O  0.20504307  0.27955405  0.15087786    -2.32000
O126        O  0.27406083  0.22254921  0.15108222    -2.28300
O127        O  0.20560826  0.27986154  0.12064050    -0.72900
H128        H  0.27734514  0.29889949  0.11403784     0.79100
H129        H  0.19174525  0.29082055  0.15753804     0.80200
H130        H  0.20322617  0.20457640  0.11334108     0.82500
H131        H  0.28705667  0.21109870  0.15772144     0.80100
H132        H  0.17697893  0.34147846  0.13081003     0.43100
H133        H  0.13965995  0.29483086  0.13101896     0.42100
H134        H  0.16000780  0.18910957  0.14331850     0.41700
H135        H  0.20776168  0.15109796  0.12162887     0.39700
H136        H  0.30290512  0.16024581  0.13544997     0.42800
H137        H  0.33673359  0.20518432  0.13806243     0.37600
H138        H  0.32652112  0.31065903  0.12816202     0.43700
H139        H  0.27198219  0.35313893  0.12313813     0.40100
H140        H  0.21878108  0.13539602  0.13697684     0.45000
H141        H  0.35731736  0.23147616  0.14077761     0.43800
H142        H  0.25733486  0.36877235  0.13765056     0.43900
H143        H  0.12076756  0.26696942  0.13004241     0.44300
O144        O  0.49261895  0.42129846  0.66457200    -0.74600
O145        O  0.49702109  0.45833131  0.68226142    -0.53500
C146        C  0.49457532  0.43111827  0.67865772     0.79100
O147        O  0.07948395  0.98986199  0.60951583    -0.59200
O148        O  0.04328294  0.99236568  0.59134371    -0.52200
C149        C  0.07029067  0.99030937  0.59523302     0.71100
O150        O  0.07873355  0.99367022  0.66217008    -0.73800
O151        O  0.04343786  0.99958432  0.68083144    -0.54300
C152        C  0.07027539  0.99670426  0.67644523     0.77100
O153        O  0.49227986  0.41764302  0.61163532    -0.58900
O154        O  0.49393766  0.45335186  0.59290917    -0.52000
C155        C  0.49267081  0.42643542  0.59728319     0.73700
Zr156      Zr  0.49297474  0.44013718  0.63760658     2.49500
O157        O  0.02139182  0.39798452  0.63806944    -0.79500
O158        O  0.45076736  0.40965378  0.63777542    -0.92900
Zr159      Zr  0.05830229  0.99148979  0.63603028     2.64700
O160        O  0.08502049  0.44784609  0.63570618    -0.97800
O161        O  0.10039519  0.02198192  0.63561300    -0.79900
O162        O  0.02258130  0.46776381  0.65142820    -0.83300
O163        O  0.02283152  0.46623401  0.62106166    -2.18000
O164        O  0.41627209  0.01277418  0.60825980    -0.66700
O165        O  0.45294957  0.00789796  0.59042627    -0.51200
C166        C  0.42590764  0.01128128  0.59408267     0.72100
O167        O  0.50166230  0.08595530  0.66137539    -0.59600
O168        O  0.49890112  0.05016032  0.67996190    -0.51500
C169        C  0.50033283  0.07723537  0.67573021     0.73900
O170        O  0.50604399  0.08488524  0.60861490    -0.71000
O171        O  0.50166266  0.04812017  0.59088959    -0.49600
C172        C  0.50494621  0.07519155  0.59447911     0.75300
O173        O  0.41497265  0.01381396  0.66087899    -0.66300
O174        O  0.45012168  0.00911117  0.67959079    -0.53500
C175        C  0.42328585  0.01219288  0.67523043     0.73700
Zr176      Zr  0.43642132  0.01162017  0.63487815     2.77500
O177        O  0.40480674  0.05572371  0.63405836    -0.97000
O178        O  0.39618711  0.47460702  0.63659930    -0.77900
Zr179      Zr  0.50256161  0.06448558  0.63508458     2.70100
O180        O  0.46685727  0.10533105  0.63484252    -0.79100
O181        O  0.04713330  0.08914952  0.63511499    -0.98200
Zr182      Zr  0.49682810  0.00400742  0.66576786     2.21500
Zr183      Zr  0.49750909  0.00267905  0.60538294     2.11100
O184        O  0.46939185  0.03836291  0.61977152    -2.46900
O185        O  0.46892754  0.03855110  0.65031551    -0.78900
O186        O  0.46400161  0.47260128  0.62171430    -0.71100
O187        O  0.03109764  0.02725827  0.65087187    -2.32000
O188        O  0.46430027  0.47464168  0.65215475    -2.28300
O189        O  0.03156378  0.02597077  0.62045016    -0.72900
H190        H  0.03355315  0.45261443  0.61444421     0.79100
H191        H  0.04386127  0.03836136  0.65732788     0.80200
H192        H  0.45887328  0.05160444  0.61285003     0.82500
H193        H  0.45175598  0.46420476  0.65912508     0.80100
H194        H  0.09349653  0.04068687  0.64047214     0.43100
H195        H  0.05894828  0.08090916  0.62635930     0.42100
H196        H  0.45103105  0.09874866  0.62804229     0.41700
H197        H  0.40908846  0.06519538  0.62392609     0.39700
H198        H  0.40154857  0.45990314  0.64475289     0.42800
H199        H  0.43661711  0.41999826  0.63076240     0.37600
H200        H  0.00838750  0.38147363  0.63970418     0.43700
H201        H  0.08479484  0.44094463  0.62473988     0.40100
H202        H  0.38506474  0.04828581  0.63271474     0.45000
H203        H  0.44229043  0.41213166  0.64835661     0.43800
H204        H  0.10516313  0.45396392  0.63735966     0.43900
H205        H  0.04047825  0.10890522  0.63143231     0.44300
O206        O  0.08003798  0.99733159  0.33955410    -0.74600
O207        O  0.04492463  0.99393771  0.32084408    -0.53500
C208        C  0.07163738  0.99508649  0.32526808     0.79100
O209        O  0.50142002  0.41852729  0.39247169    -0.59200
O210        O  0.49826112  0.45637743  0.40977079    -0.52200
C211        C  0.50051925  0.42891604  0.40645865     0.71100
O212        O  0.49872408  0.41602636  0.33992252    -0.73800
O213        O  0.49769994  0.45119701  0.32089898    -0.54300
C214        C  0.49788317  0.42420301  0.32547716     0.77100
O215        O  0.07838188  0.00521555  0.39246820    -0.58900
O216        O  0.04168637  0.00388596  0.41018380    -0.52000
C217        C  0.06869383  0.00569981  0.40666997     0.73700
Zr218      Zr  0.05917585  0.99960596  0.36573984     2.54700
O219        O  0.09423214  0.45510116  0.36589870    -0.79500
O220        O  0.09632234  0.03598457  0.36391050    -0.92900
Zr221      Zr  0.49966117  0.43813984  0.36590232     2.64700
O222        O  0.04146992  0.39991099  0.36760811    -0.97800
O223        O  0.46221629  0.40202533  0.36637610    -0.79900
O224        O  0.03027927  0.46529902  0.35102716    -0.83300
O225        O  0.03063497  0.46586123  0.38155675    -2.18000
O226        O  0.50189174  0.08285031  0.39146148    -0.66700
O227        O  0.50182864  0.04650485  0.40982821    -0.51200
C228        C  0.50208061  0.07365744  0.40576580     0.72100
O229        O  0.41761652  0.00451510  0.34063984    -0.59600
O230        O  0.45330837  0.00260237  0.32199071    -0.51500
C231        C  0.42642692  0.00419782  0.32635036     0.73900
O232        O  0.41908547  0.99978056  0.39355821    -0.71000
O233        O  0.45560097  0.00256346  0.41123814    -0.49600
C234        C  0.42856849  0.00087164  0.40775812     0.75300
O235        O  0.50467235  0.07924492  0.33849411    -0.66300
O236        O  0.50389077  0.04209171  0.32075102    -0.53500
C237        C  0.50553090  0.06934401  0.32436410     0.73700
Zr238      Zr  0.50098831  0.06055306  0.36531709     2.77500
O239        O  0.46204554  0.09811146  0.36327458    -0.97000
O240        O  0.02792704  0.10174119  0.36415259    -0.77900
Zr241      Zr  0.43867009  0.00296894  0.36675274     2.70100
O242        O  0.40513854  0.04555008  0.36794558    -0.79100
O243        O  0.40373566  0.45979215  0.36484217    -0.98200
Zr244      Zr  0.49960395  0.99763799  0.33606692     2.21500
Zr245      Zr  0.49999752  0.00054425  0.39598531     2.11100
O246        O  0.46931362  0.03332488  0.38116962    -2.46900
O247        O  0.46933871  0.03129016  0.35072403    -0.78900
O248        O  0.02745200  0.03219482  0.37978908    -0.71100
O249        O  0.46804004  0.46834811  0.35035719    -2.32000
O250        O  0.02794894  0.02963382  0.34978867    -2.28300
O251        O  0.46746021  0.46918888  0.38071230    -0.72900
H252        H  0.04270059  0.45425866  0.38856037     0.79100
H253        H  0.45634180  0.45624115  0.34379422     0.80200
H254        H  0.45772457  0.04624273  0.38788243     0.82500
H255        H  0.03996671  0.04103923  0.34300512     0.80100
H256        H  0.44882408  0.40788152  0.35776120     0.43100
H257        H  0.40709652  0.44945896  0.37492543     0.42100
H258        H  0.41223726  0.05909335  0.35985833     0.41700
H259        H  0.47211864  0.11641781  0.36099443     0.39700
H260        H  0.04731683  0.09220763  0.36600740     0.42800
H261        H  0.11201847  0.02883016  0.37103703     0.37600
H262        H  0.09010997  0.44390203  0.37552831     0.43700
H263        H  0.05111363  0.40345722  0.37772897     0.40100
H264        H  0.45197036  0.09360814  0.35339176     0.45000
H265        H  0.08764658  0.05359875  0.36913770     0.43800
H266        H  0.03235815  0.38077916  0.36903592     0.43900
H267        H  0.38412658  0.46932464  0.36587807     0.44300
C268        C  0.99375762  0.27619464  0.51010630     0.03000
C269        C  0.99365949  0.27739183  0.49358858     0.02900
C270        C  0.99247657  0.25127415  0.48510838    -0.17600
C271        C  0.99356129  0.22374340  0.49236225     0.03000
C272        C  0.99586491  0.22235773  0.50888138     0.02900
C273        C  0.99474512  0.24865395  0.51742437    -0.17600
H274        H  0.99537561  0.24765779  0.53010985     0.05000
H275        H  0.99164653  0.25239998  0.47242289     0.05000
C276        C  0.27370262  0.50707552  0.50980137     0.03000
C277        C  0.27427184  0.50630237  0.49319379     0.02900
C278        C  0.24773304  0.50612008  0.48517755    -0.17600
C279        C  0.22089621  0.50506927  0.49293599     0.03000
C280        C  0.22038575  0.50367654  0.50952578     0.02900
C281        C  0.24683675  0.50542893  0.51758404    -0.17600
H282        H  0.24655686  0.50515729  0.53027707     0.05000
H283        H  0.24799516  0.50622388  0.47247799     0.05000
C284        C  0.48934308  0.24769672  0.25031861    -0.01800
C285        C  0.47542292  0.37925675  0.28987754    -0.04800
C286        C  0.49194823  0.35285492  0.29217994     0.09400
C287        C  0.51186399  0.35070633  0.30469015    -0.02200
C288        C  0.51397151  0.37403022  0.31538874    -0.00400
C289        C  0.49683727  0.40038400  0.31343958    -0.04000
C290        C  0.47815626  0.40309527  0.30026592     0.03000
C291        C  0.48990923  0.32800071  0.28075213     0.09800
C292        C  0.53115391  0.32487435  0.30623165     0.35700
C293        C  0.96002363  0.42912025  0.29886036     0.39100
C294        C  0.01218298  0.32418476  0.26904820    -0.04400
C295        C  0.00999476  0.30135723  0.25806560     0.02800
C296        C  0.48873990  0.27799386  0.26004774    -0.04000
C297        C  0.46507681  0.28532844  0.27065209    -0.00200
C298        C  0.46607145  0.30977043  0.28089670    -0.02800
C299        C  0.03650836  0.34358200  0.26835538     0.36500
C300        C  0.44060999  0.26657458  0.27260330     0.40100
C301        C  0.02776933  0.30478752  0.24420723     0.39200
C302        C  0.44355504  0.31491395  0.29261354     0.36100
C303        C  0.95644360  0.38273531  0.27691030     0.36800
C304        C  0.53495664  0.37108852  0.32799792     0.40100
N305        N  0.04188022  0.30909076  0.23329091    -0.38000
N306        N  0.05605733  0.35871777  0.26782053    -0.39600
N307        N  0.42068293  0.25252048  0.27494351    -0.37300
N308        N  0.42584219  0.31901677  0.30206341    -0.39700
N309        N  0.54711317  0.30470857  0.30739621    -0.39500
N310        N  0.55190388  0.36831372  0.33792606    -0.37100
N311        N  0.94541552  0.45005297  0.29689460    -0.38200
N312        N  0.94068202  0.38505599  0.26640457    -0.39800
C313        C  0.52543478  0.13850040  0.30214473    -0.04800
C314        C  0.50527962  0.13858054  0.28970900     0.09400
C315        C  0.48903777  0.11336951  0.28719656    -0.02200
C316        C  0.49229818  0.08897199  0.29736448    -0.00400
C317        C  0.50828145  0.09129893  0.31144323    -0.04000
C318        C  0.52590227  0.11579834  0.31338182     0.03000
C319        C  0.50087735  0.16566205  0.27972754     0.09800
C320        C  0.46833288  0.11269537  0.27444358     0.35700
C321        C  0.54537085  0.11755520  0.32663264     0.39100
C322        C  0.00504725  0.16624192  0.26273347    -0.04400
C323        C  0.99872419  0.19177161  0.25366582     0.02800
C324        C  0.49418926  0.21907177  0.26129084    -0.04000
C325        C  0.49300119  0.21887245  0.27821394    -0.00200
C326        C  0.49143936  0.19225661  0.28660078    -0.02800
C327        C  0.01663464  0.13957910  0.25532950     0.36500
C328        C  0.49825736  0.24379459  0.28806461     0.40100
C329        C  0.99629332  0.18701330  0.23696830     0.39200
C330        C  0.48101324  0.19243064  0.30268705     0.36100
C331        C  0.54579853  0.16188191  0.30335184     0.36800
C332        C  0.47979719  0.06148865  0.29299111     0.40100
N333        N  0.99439892  0.18091421  0.22388612    -0.38000
N334        N  0.02602315  0.11837471  0.24947807    -0.39600
N335        N  0.50307925  0.26213036  0.29690642    -0.37300
N336        N  0.47248825  0.19252701  0.31543195    -0.39700
N337        N  0.94608237  0.11692081  0.26439167    -0.39500
N338        N  0.47043020  0.03940087  0.28924900    -0.37100
N339        N  0.56111862  0.11961231  0.33706892    -0.38200
N340        N  0.56218927  0.18037559  0.30425832    -0.39800
C341        C  0.01153521  0.14096370  0.42979217    -0.04800
C342        C  0.50244678  0.13633895  0.44378996     0.09400
C343        C  0.48468649  0.11201758  0.44452973    -0.02200
C344        C  0.48414370  0.09207572  0.43201055    -0.00400
C345        C  0.50208168  0.09571311  0.41867904    -0.04000
C346        C  0.01199541  0.12073377  0.41727654     0.03000
C347        C  0.50125436  0.15832611  0.45675630     0.09800
C348        C  0.46699029  0.10746555  0.45834189     0.35700
C349        C  0.03255249  0.12410694  0.40459950     0.39100
C350        C  0.47685269  0.17782699  0.45826403    -0.04400
C351        C  0.47523033  0.19802410  0.47069425     0.02800
C352        C  0.99236367  0.19795478  0.48168723    -0.04000
C353        C  0.01734136  0.17963160  0.47892990    -0.00200
C354        C  0.01764368  0.15904566  0.46660292    -0.02800
C355        C  0.45376781  0.17764111  0.44671728     0.36500
C356        C  0.04365068  0.18343992  0.48782921     0.40100
C357        C  0.44934595  0.21704455  0.47246193     0.39200
C358        C  0.04310308  0.13983324  0.46406623     0.36100
C359        C  0.02920998  0.16655021  0.42900637     0.36800
C360        C  0.46436695  0.06824809  0.43293968     0.40100
N361        N  0.42869617  0.23215240  0.47388465    -0.38000
N362        N  0.43549027  0.17755878  0.43743983    -0.39600
N363        N  0.06508925  0.18621792  0.49460229    -0.37300
N364        N  0.06343875  0.12457621  0.46198034    -0.39700
N365        N  0.45294617  0.10393050  0.46937244    -0.39500
N366        N  0.44831852  0.04953780  0.43414826    -0.37100
N367        N  0.04931130  0.12685393  0.39465766    -0.38200
N368        N  0.04338761  0.18690297  0.42836036    -0.39800
C369        C  0.01716094  0.39070813  0.44635094    -0.04800
C370        C  0.99733267  0.36800743  0.44674757     0.09400
C371        C  0.48932316  0.36172839  0.43220005    -0.02200
C372        C  0.48909208  0.38037714  0.41904317    -0.00400
C373        C  0.50225967  0.40794784  0.41985723    -0.04000
C374        C  0.01839636  0.40909515  0.43318143     0.03000
C375        C  0.99765381  0.34715654  0.46018865     0.09800
C376        C  0.47701599  0.33296373  0.43124139     0.35700
C377        C  0.04084731  0.43041781  0.43238607     0.39100
C378        C  0.47787770  0.34871981  0.46967427    -0.04400
C379        C  0.47743250  0.32718118  0.48151598     0.02800
C380        C  0.99668994  0.30447978  0.48414009    -0.04000
C381        C  0.02106656  0.30592579  0.47404432    -0.00200
C382        C  0.02115189  0.32665055  0.46188693    -0.02800
C383        C  0.45238857  0.36771368  0.46671159     0.36500
C384        C  0.04513799  0.28439998  0.47530528     0.40100
C385        C  0.45100996  0.32360972  0.49040587     0.39200
C386        C  0.04469456  0.32580771  0.45054175     0.36100
C387        C  0.03699002  0.39454878  0.45931949     0.36800
C388        C  0.47463388  0.37107542  0.40494630     0.40100
N389        N  0.42951404  0.32119892  0.49722148    -0.38000
N390        N  0.43207272  0.38275613  0.46417133    -0.39600
N391        N  0.06415673  0.26707700  0.47619898    -0.37300
N392        N  0.06336911  0.32516123  0.44145905    -0.39700
N393        N  0.46741452  0.30993714  0.43055920    -0.39500
N394        N  0.46306687  0.36308508  0.39382923    -0.37100
N395        N  0.05916035  0.44700655  0.43203466    -0.38200
N396        N  0.05304522  0.39743399  0.46955094    -0.39800
C397        C  0.15808677  0.47832429  0.46848646    -0.04800
C398        C  0.15246599  0.50286838  0.45869035     0.09400
C399        C  0.16580357  0.03703161  0.46221996    -0.02200
C400        C  0.18734340  0.03660534  0.47394264    -0.00400
C401        C  0.19460879  0.50528643  0.48273474    -0.04000
C402        C  0.17956465  0.47928018  0.48025090     0.03000
C403        C  0.13129443  0.50146890  0.44547646     0.09800
C404        C  0.15975209  0.06353952  0.45317081     0.35700
C405        C  0.18806702  0.45264899  0.48865315     0.39100
C406        C  0.10111528  0.02204647  0.44718061    -0.04400
C407        C  0.08148801  0.02137313  0.43448414     0.02800
C408        C  0.09165281  0.50171609  0.41991656    -0.04000
C409        C  0.12074812  0.49043213  0.41809742    -0.00200
C410        C  0.14050872  0.49102314  0.43071701    -0.02800
C411        C  0.09170328  0.03386295  0.46219481     0.36500
C412        C  0.13073049  0.47761912  0.40343345     0.40100
C413        C  0.05249493  0.03430695  0.43670999     0.39200
C414        C  0.17068688  0.48149477  0.42844539     0.36100
C415        C  0.14236215  0.45178872  0.46609415     0.36800
C416        C  0.20421894  0.06242777  0.47639519     0.40100
N417        N  0.02946832  0.04455843  0.43893350    -0.38000
N418        N  0.08438229  0.04311423  0.47422741    -0.39600
N419        N  0.13916605  0.46738441  0.39182876    -0.37300
N420        N  0.19480638  0.47419670  0.42657511    -0.39700
N421        N  0.15486024  0.08474889  0.44600812    -0.39500
N422        N  0.21790216  0.08281621  0.47840892    -0.37100
N423        N  0.19494219  0.43104067  0.49502387    -0.38200
N424        N  0.12976554  0.43063727  0.46420301    -0.39800
C425        C  0.32690302  0.47864287  0.46157894    -0.04800
C426        C  0.34414191  0.50311596  0.45916294     0.09400
C427        C  0.34162232  0.02818596  0.46929315    -0.02200
C428        C  0.31862257  0.03035363  0.48026238    -0.00400
C429        C  0.30126556  0.50396135  0.48326684    -0.04000
C430        C  0.30575209  0.47896993  0.47354481     0.03000
C431        C  0.36695347  0.00214285  0.44670078     0.09800
C432        C  0.36082399  0.05234963  0.46727485     0.35700
C433        C  0.28756817  0.45388557  0.47534817     0.39100
C434        C  0.35828693  0.51909249  0.43180700    -0.04400
C435        C  0.37821365  0.01280209  0.41926354     0.02800
C436        C  0.40692716  0.00049460  0.42108957    -0.04000
C437        C  0.41495575  0.98863653  0.43601809    -0.00200
C438        C  0.39508131  0.98956011  0.44865479    -0.02800
C439        C  0.33071631  0.53549892  0.43069043     0.36500
C440        C  0.44357328  0.97522274  0.43871967     0.40100
C441        C  0.36870694  0.02566747  0.40450773     0.39200
C442        C  0.40347496  0.97740129  0.46378679     0.36100
C443        C  0.33029974  0.45336492  0.45135876     0.36800
C444        C  0.31191976  0.05821714  0.48781502     0.40100
N445        N  0.36791643  0.55476356  0.39573056    -0.38000
N446        N  0.30857789  0.54835184  0.42980725    -0.39600
N447        N  0.46630156  0.96471878  0.44141806    -0.37300
N448        N  0.41006054  0.96766810  0.47585183    -0.39700
N449        N  0.37631821  0.07151779  0.46576738    -0.39500
N450        N  0.30667482  0.08090030  0.49341275    -0.37100
N451        N  0.27305008  0.43391527  0.47677574    -0.38200
N452        N  0.33304714  0.43319417  0.44322251    -0.39800
C453        C  0.15053897  0.01887328  0.53293179    -0.04800
C454        C  0.14826503  0.49568802  0.54190712     0.09400
C455        C  0.16972263  0.47289858  0.54043865    -0.02200
C456        C  0.19195324  0.47466834  0.52909764    -0.00400
C457        C  0.19349661  0.49968529  0.51922730    -0.04000
C458        C  0.17230710  0.02299480  0.52151937     0.03000
C459        C  0.12697487  0.49531125  0.55533453     0.09800
C460        C  0.16976164  0.44828016  0.55124010     0.35700
C461        C  0.17328165  0.05102688  0.51357657     0.39100
C462        C  0.10282377  0.47727381  0.55492002    -0.04400
C463        C  0.08393819  0.47575167  0.56797158     0.02800
C464        C  0.08860406  0.49280158  0.58157029    -0.04000
C465        C  0.11629480  0.00780501  0.58252273    -0.00200
C466        C  0.13584253  0.00845399  0.56976789    -0.02800
C467        C  0.09736691  0.46032359  0.54096668     0.36500
C468        C  0.12025458  0.02756633  0.59552821     0.40100
C469        C  0.05991940  0.45621934  0.56733130     0.39200
C470        C  0.16068216  0.02701592  0.57038974     0.36100
C471        C  0.12770526  0.04129949  0.53533015     0.36800
C472        C  0.21428841  0.45131437  0.52824567     0.40100
N473        N  0.04089814  0.44049385  0.56655554    -0.38000
N474        N  0.09300230  0.44680867  0.52983570    -0.39600
N475        N  0.12372994  0.04369302  0.60571722    -0.37300
N476        N  0.18049441  0.04181167  0.57079701    -0.39700
N477        N  0.16970736  0.42881236  0.55995958    -0.39500
N478        N  0.23220168  0.43278312  0.52766331    -0.37100
N479        N  0.17356188  0.07387345  0.50766189    -0.38200
N480        N  0.10944101  0.05910141  0.53731942    -0.39800
C481        C  0.36114295  0.48971130  0.56914704    -0.04800
C482        C  0.36610696  0.01248340  0.55483853     0.09400
C483        C  0.39193452  0.02789561  0.55394410    -0.02200
C484        C  0.41093488  0.02837770  0.56689011    -0.00400
C485        C  0.40442069  0.01311635  0.58090581    -0.04000
C486        C  0.38024379  0.48939150  0.58206788     0.03000
C487        C  0.34402591  0.51035029  0.54310409     0.09800
C488        C  0.39894300  0.04322543  0.53960464     0.35700
C489        C  0.37696713  0.46790012  0.59443277     0.39100
C490        C  0.32358724  0.53413872  0.54166054    -0.04400
C491        C  0.30195818  0.53390533  0.53000271     0.02800
C492        C  0.30001931  0.50947549  0.51986924    -0.04000
C493        C  0.32042191  0.48563901  0.52142354    -0.00200
C494        C  0.34306245  0.48669160  0.53251039    -0.02800
C495        C  0.32846749  0.06325350  0.54911543     0.36500
C496        C  0.31631886  0.45854913  0.51306368     0.40100
C497        C  0.28053245  0.55814143  0.52909605     0.39200
C498        C  0.36495487  0.46293674  0.53332455     0.36100
C499        C  0.33744671  0.46970334  0.56879400     0.36800
C500        C  0.43668447  0.04552209  0.56578628     0.40100
N501        N  0.26330163  0.57732176  0.52848695    -0.38000
N502        N  0.33022661  0.08348612  0.55715106    -0.39600
N503        N  0.31316554  0.43633488  0.50691906    -0.37300
N504        N  0.38240706  0.44396398  0.53388860    -0.39700
N505        N  0.40444869  0.05546134  0.52816331    -0.39500
N506        N  0.45704919  0.05940311  0.56464009    -0.37100
N507        N  0.37437214  0.45061823  0.60422758    -0.38200
N508        N  0.31865824  0.45361970  0.56843795    -0.39800
C509        C  0.02737355  0.16992641  0.53946357    -0.04800
C510        C  0.50898928  0.15510315  0.54133197     0.09400
C511        C  0.48517886  0.15628382  0.53097918    -0.02200
C512        C  0.48300544  0.17827699  0.51936575    -0.00400
C513        C  0.00056590  0.19479740  0.51813081    -0.04000
C514        C  0.02549304  0.19185598  0.52787414     0.03000
C515        C  0.50885033  0.13510169  0.55513833     0.09800
C516        C  0.46238898  0.13548928  0.53278728     0.35700
C517        C  0.04851928  0.21262499  0.52670962     0.39100
C518        C  0.99434012  0.13954720  0.56953357    -0.04400
C519        C  0.99451239  0.12020910  0.58242596     0.02800
C520        C  0.50743291  0.09658869  0.58123884    -0.04000
C521        C  0.52147218  0.08773700  0.56708993    -0.00200
C522        C  0.52129800  0.10658806  0.55401464    -0.02800
C523        C  0.98335041  0.16968704  0.57129751     0.36500
C524        C  0.53674356  0.05944837  0.56579082     0.40100
C525        C  0.98143502  0.13057499  0.59692895     0.39200
C526        C  0.53310144  0.09636203  0.53915072     0.36100
C527        C  0.05195032  0.16828327  0.55009546     0.36800
C528        C  0.45613226  0.18248628  0.51070811     0.40100
N529        N  0.97088566  0.13965247  0.60830811    -0.38000
N530        N  0.97489305  0.19378677  0.57273887    -0.39600
N531        N  0.54916317  0.03707693  0.56431161    -0.37300
N532        N  0.54209028  0.08813532  0.52722786    -0.39700
N533        N  0.44446596  0.11863743  0.53429194    -0.39500
N534        N  0.43424821  0.18572299  0.50417064    -0.37100
N535        N  0.06677026  0.22928621  0.52592518    -0.38200
N536        N  0.07136523  0.16704854  0.55868567    -0.39800
C537        C  0.01678033  0.34084394  0.53479113    -0.04800
C538        C  0.49487754  0.34397648  0.54564279     0.09400
C539        C  0.47108733  0.32615307  0.54306010    -0.02200
C540        C  0.47112566  0.30705766  0.53018048    -0.00400
C541        C  0.99227460  0.30240400  0.52053850    -0.04000
C542        C  0.01684595  0.31952863  0.52282067     0.03000
C543        C  0.49428634  0.36468904  0.55913944     0.09800
C544        C  0.44693731  0.32678426  0.55401332     0.35700
C545        C  0.04305869  0.31391018  0.51374733     0.39100
C546        C  0.97688051  0.39371293  0.55607571    -0.04400
C547        C  0.97495964  0.41355760  0.56868774     0.02800
C548        C  0.49202942  0.40409034  0.58467073    -0.04000
C549        C  0.51062179  0.37856945  0.58520829    -0.00200
C550        C  0.51148170  0.35878187  0.57253108    -0.02800
C551        C  0.96296622  0.40110037  0.54126470     0.36500
C552        C  0.52985433  0.37315091  0.59842423     0.40100
C553        C  0.95736075  0.44045522  0.56683161     0.39200
C554        C  0.53021157  0.33242543  0.57320677     0.36100
C555        C  0.04215492  0.35807958  0.53730120     0.36800
C556        C  0.44658884  0.28849094  0.52788797     0.40100
N557        N  0.94323670  0.46175355  0.56498701    -0.38000
N558        N  0.95204576  0.40683274  0.52939699    -0.39600
N559        N  0.54536361  0.36863645  0.60887583    -0.37300
N560        N  0.54524774  0.31147387  0.57377180    -0.39700
N561        N  0.42773424  0.32731361  0.56276986    -0.39500
N562        N  0.42711047  0.27360440  0.52609670    -0.37100
N563        N  0.06444341  0.30980952  0.50682843    -0.38200
N564        N  0.06243365  0.37172640  0.53938303    -0.39800
C565        C  0.11671094  0.22312525  0.20892029    -0.04800
C566        C  0.09492138  0.24594159  0.20894139     0.09400
C567        C  0.09792555  0.27021001  0.19878810    -0.02200
C568        C  0.12097870  0.27045051  0.18789507    -0.00400
C569        C  0.14302151  0.24792535  0.18806992    -0.04000
C570        C  0.14133208  0.22490714  0.19909501     0.03000
C571        C  0.06829397  0.24418322  0.21919354     0.09800
C572        C  0.07722089  0.29503871  0.19946044     0.35700
C573        C  0.16459898  0.20266754  0.20016677     0.39100
C574        C  0.07048760  0.24518005  0.23553260    -0.04400
C575        C  0.04533907  0.24455113  0.24510560     0.02800
C576        C  0.01631265  0.24646534  0.23851539    -0.04000
C577        C  0.01505748  0.24424423  0.22163868    -0.00200
C578        C  0.04073118  0.24216195  0.21241470    -0.02800
C579        C  0.09888793  0.24869015  0.24254927     0.36500
C580        C  0.98844168  0.24191784  0.21288411     0.40100
C581        C  0.05055353  0.24506777  0.26183872     0.39200
C582        C  0.03895211  0.23738160  0.19560560     0.36100
C583        C  0.11332112  0.19726510  0.21858229     0.36800
C584        C  0.12191021  0.29404485  0.17648753     0.40100
N585        N  0.05701120  0.24569106  0.27490745    -0.38000
N586        N  0.12148247  0.25162472  0.24810589    -0.39600
N587        N  0.46899212  0.23498045  0.20538349    -0.37300
N588        N  0.03754649  0.23351164  0.18225833    -0.39700
N589        N  0.06092013  0.31502992  0.19986427    -0.39500
N590        N  0.12239729  0.31288605  0.16739703    -0.37100
N591        N  0.18326494  0.18506327  0.20136520    -0.38200
N592        N  0.11058255  0.17659456  0.22625413    -0.39800
C593        C  0.35410737  0.26509020  0.21458397    -0.04800
C594        C  0.37999839  0.24815471  0.21179257     0.09400
C595        C  0.38196395  0.23030790  0.19833548    -0.02200
C596        C  0.35919682  0.23085793  0.18729949    -0.00400
C597        C  0.33420644  0.24961550  0.18939782    -0.04000
C598        C  0.33119405  0.26562183  0.20353266     0.03000
C599        C  0.40538078  0.24909725  0.22290436     0.09800
C600        C  0.40714959  0.21065796  0.19591548     0.35700
C601        C  0.30444037  0.28230386  0.20690719     0.39100
C602        C  0.41206890  0.22553484  0.23298801    -0.04400
C603        C  0.43737312  0.22510153  0.24252560     0.02800
C604        C  0.45840688  0.24797220  0.24137760    -0.04000
C605        C  0.44893436  0.27314916  0.23202229    -0.00200
C606        C  0.42307005  0.27333833  0.22299129    -0.02800
C607        C  0.39195470  0.20174139  0.23375781     0.36500
C608        C  0.46610058  0.29882917  0.23013495     0.40100
C609        C  0.43853073  0.20192629  0.25417687     0.39200
C610        C  0.41530210  0.29820178  0.21289863     0.36100
C611        C  0.35098248  0.28181792  0.22892790     0.36800
C612        C  0.36071633  0.21012085  0.17446392     0.40100
N613        N  0.43754381  0.18313832  0.26328531    -0.38000
N614        N  0.37582817  0.18294460  0.23428558    -0.39600
N615        N  0.47750346  0.32049881  0.22761543    -0.37300
N616        N  0.40911087  0.31795245  0.20486376    -0.39700
N617        N  0.42671849  0.19440038  0.19381051    -0.39500
N618        N  0.36238463  0.19278261  0.16461764    -0.37100
N619        N  0.28291439  0.29516155  0.20978980    -0.38200
N620        N  0.34842136  0.29519836  0.24036501    -0.39800
C621        C  0.28931157  0.08654385  0.03471549    -0.04800
C622        C  0.26447622  0.09740473  0.04293407     0.09400
C623        C  0.23718286  0.08590691  0.03955702    -0.02200
C624        C  0.23507653  0.06219636  0.02914407    -0.00400
C625        C  0.25962127  0.05182538  0.02050907    -0.04000
C626        C  0.28685760  0.06399554  0.02345620     0.03000
C627        C  0.26699592  0.11823462  0.05648560     0.09800
C628        C  0.21123342  0.09797688  0.04722991     0.35700
C629        C  0.31283229  0.05133904  0.01612454     0.39100
C630        C  0.27183862  0.14822407  0.05407064    -0.04400
C631        C  0.27037408  0.16813703  0.06677096     0.02800
C632        C  0.26292301  0.15844021  0.08210578    -0.04000
C633        C  0.26012462  0.12775566  0.08453365    -0.00200
C634        C  0.26249364  0.10796890  0.07185467    -0.02800
C635        C  0.27787563  0.15872007  0.03840199     0.36500
C636        C  0.25396260  0.11595689  0.09991180     0.40100
C637        C  0.27710692  0.19848709  0.06381625     0.39200
C638        C  0.25961944  0.07673593  0.07454988     0.36100
C639        C  0.31754360  0.09777139  0.03829874     0.36800
C640        C  0.20820190  0.04671407  0.02850624     0.40100
N641        N  0.28256808  0.22256749  0.06119118    -0.38000
N642        N  0.28291389  0.16708717  0.02593219    -0.39600
N643        N  0.24923596  0.10609558  0.11210021    -0.37300
N644        N  0.25724216  0.05184988  0.07662415    -0.39700
N645        N  0.19055261  0.10770655  0.05330981    -0.39500
N646        N  0.18693648  0.03404292  0.02826885    -0.37100
N647        N  0.33380928  0.04109888  0.01057652    -0.38200
N648        N  0.34002687  0.10688569  0.04112478    -0.39800
C649        C  0.22039234  0.35547880  0.05370710    -0.04800
C650        C  0.22734267  0.38484015  0.05627688     0.09400
C651        C  0.22940869  0.39529139  0.07171356    -0.02200
C652        C  0.22752412  0.37588512  0.08453605    -0.00400
C653        C  0.22329922  0.34547989  0.08204538    -0.04000
C654        C  0.21776511  0.33600618  0.06647541     0.03000
C655        C  0.23341276  0.40486956  0.04282156     0.09800
C656        C  0.23390800  0.42624033  0.07436735     0.35700
C657        C  0.20929243  0.30628259  0.06331101     0.39100
C658        C  0.21044664  0.41739727  0.03378022    -0.04400
C659        C  0.21611570  0.43846788  0.02211781     0.02800
C660        C  0.24469326  0.44787922  0.01979957    -0.04000
C661        C  0.26748148  0.43583379  0.02922864    -0.00200
C662        C  0.26208580  0.41348703  0.04013443    -0.02800
C663        C  0.18078064  0.40994952  0.03721794     0.36500
C664        C  0.29604841  0.44815313  0.02866822     0.40100
C665        C  0.19208425  0.45249562  0.01364596     0.39200
C666        C  0.28592903  0.40018082  0.04911781     0.36100
C667        C  0.21646042  0.34516689  0.03783081     0.36800
C668        C  0.23044860  0.38780282  0.10014075     0.40100
N669        N  0.17259005  0.46368828  0.00712988    -0.38000
N670        N  0.15717150  0.40401392  0.04010959    -0.39600
N671        N  0.31866812  0.45831032  0.02833462    -0.37300
N672        N  0.30493151  0.38957195  0.05628093    -0.39700
N673        N  0.23748434  0.45089776  0.07646792    -0.39500
N674        N  0.23249950  0.39793672  0.11246604    -0.37100
N675        N  0.20258790  0.28267894  0.06051428    -0.38200
N676        N  0.21313405  0.33700882  0.02517653    -0.39800
C677        C  0.28108566  0.08090090  0.96306573    -0.04800
C678        C  0.25693623  0.10104912  0.96217579     0.09400
C679        C  0.23403406  0.09856675  0.97304799    -0.02200
C680        C  0.23370734  0.07442234  0.98346568    -0.00400
C681        C  0.25787156  0.05425047  0.98443815    -0.04000
C682        C  0.28185440  0.05814984  0.97436818     0.03000
C683        C  0.25437026  0.12299593  0.94892215     0.09800
C684        C  0.21013597  0.12036240  0.97308557     0.35700
C685        C  0.30671388  0.03757651  0.97496214     0.39100
C686        C  0.23276810  0.12020087  0.93727761    -0.04400
C687        C  0.23063055  0.14028461  0.92466801     0.02800
C688        C  0.25120814  0.16217932  0.92292737    -0.04000
C689        C  0.27359316  0.16410037  0.93411489    -0.00200
C690        C  0.27420996  0.14572768  0.94747122    -0.02800
C691        C  0.21280232  0.09643597  0.93812511     0.36500
C692        C  0.29762576  0.18285111  0.93110953     0.40100
C693        C  0.20695147  0.13859768  0.91357057     0.39200
C694        C  0.29523986  0.15031340  0.95974884     0.36100
C695        C  0.30463845  0.08270175  0.95185833     0.36800
C696        C  0.20689458  0.06869245  0.99154864     0.40100
N697        N  0.18794477  0.13730447  0.90479172    -0.38000
N698        N  0.19674238  0.07759756  0.93879035    -0.39600
N699        N  0.31746231  0.19682589  0.92846328    -0.37300
N700        N  0.31195251  0.15404777  0.96956937    -0.39700
N701        N  0.19109331  0.13774207  0.97309313    -0.39500
N702        N  0.18808089  0.56780177  0.99607754    -0.37100
N703        N  0.32652010  0.02112288  0.97533707    -0.38200
N704        N  0.32344599  0.08429383  0.94294082    -0.39800
C705        C  0.21707144  0.43216802  0.96033134    -0.04800
C706        C  0.23631013  0.40745174  0.95919065     0.09400
C707        C  0.25805428  0.40268448  0.97061404    -0.02200
C708        C  0.26254335  0.42409602  0.98219006    -0.00400
C709        C  0.24342422  0.44914189  0.98336302    -0.04000
C710        C  0.21995687  0.45236023  0.97263790     0.03000
C711        C  0.23515451  0.38770702  0.94525048     0.09800
C712        C  0.27650270  0.37611043  0.97002021     0.35700
C713        C  0.19973504  0.47758654  0.97363381     0.39100
C714        C  0.25563845  0.39022601  0.93303531    -0.04400
C715        C  0.25516348  0.37118687  0.92006066     0.02800
C716        C  0.23348018  0.35023852  0.91895004    -0.04000
C717        C  0.21219797  0.34870465  0.93084078    -0.00200
C718        C  0.21353732  0.36679635  0.94413757    -0.02800
C719        C  0.27748745  0.41219929  0.93395760     0.36500
C720        C  0.18848554  0.32890800  0.92924418     0.40100
C721        C  0.27788562  0.37219418  0.90830938     0.39200
C722        C  0.19320493  0.36327500  0.95690612     0.36100
C723        C  0.19536680  0.43770167  0.94827104     0.36800
C724        C  0.28875388  0.42160440  0.99148550     0.40100
N725        N  0.29615358  0.37290385  0.89901800    -0.38000
N726        N  0.29490507  0.42973060  0.93472045    -0.39600
N727        N  0.16941239  0.31335424  0.92790548    -0.37300
N728        N  0.17710145  0.36017871  0.96712598    -0.39700
N729        N  0.29096624  0.35476002  0.96952318    -0.39500
N730        N  0.31039123  0.41885596  0.99829109    -0.37100
N731        N  0.18381297  0.49784921  0.97438719    -0.38200
N732        N  0.17828673  0.44216037  0.93854170    -0.39800
C733        C  0.51814947  0.14657912  0.69851613    -0.04800
C734        C  0.49834765  0.14577728  0.71113208     0.09400
C735        C  0.48040417  0.12153145  0.71263882    -0.02200
C736        C  0.48108500  0.09912487  0.70121177    -0.00400
C737        C  0.50030465  0.10028351  0.68825119    -0.04000
C738        C  0.51930328  0.12393708  0.68723796     0.03000
C739        C  0.49625198  0.17065485  0.72275424     0.09800
C740        C  0.46126665  0.11957994  0.72607606     0.35700
C741        C  0.54103051  0.12462662  0.67495746     0.39100
C742        C  0.47167064  0.18982328  0.72310004    -0.04400
C743        C  0.47021666  0.21435802  0.73331517     0.02800
C744        C  0.49444327  0.22153184  0.74321364    -0.04000
C745        C  0.01783793  0.19946638  0.74289603    -0.00200
C746        C  0.01840582  0.17470206  0.73280888    -0.02800
C747        C  0.44834351  0.18529233  0.71199969     0.36500
C748        C  0.03992283  0.19816158  0.75490908     0.40100
C749        C  0.44391561  0.23276172  0.73209988     0.39200
C750        C  0.04223198  0.15273787  0.73362685     0.36100
C751        C  0.53777853  0.17058329  0.69724058     0.36800
C752        C  0.46123140  0.07540810  0.70272193     0.40100
N753        N  0.42191569  0.24538696  0.73007678    -0.38000
N754        N  0.42984819  0.18173635  0.70313794    -0.39600
N755        N  0.05731016  0.19516006  0.76459383    -0.37300
N756        N  0.06116756  0.13528632  0.73430380    -0.39700
N757        N  0.44599572  0.11805006  0.73678671    -0.39500
N758        N  0.44525053  0.05666512  0.70419632    -0.37100
N759        N  0.55866189  0.12548643  0.66532865    -0.38200
N760        N  0.05246174  0.18886079  0.69539669    -0.39800
C761        C  0.01345395  0.37853383  0.71053391    -0.04800
C762        C  0.49211342  0.36233627  0.71373341     0.09400
C763        C  0.46654324  0.37185477  0.70572131    -0.02200
C764        C  0.46725781  0.39484669  0.69459600    -0.00400
C765        C  0.49334945  0.40911596  0.69159316    -0.04000
C766        C  0.01359973  0.40208311  0.69973045     0.03000
C767        C  0.49262525  0.33466764  0.72358982     0.09800
C768        C  0.43949863  0.35761947  0.70866044     0.35700
C769        C  0.03954444  0.41864725  0.69794410     0.39100
C770        C  0.99146454  0.33623836  0.73900610    -0.04400
C771        C  0.99403392  0.31011887  0.74816812     0.02800
C772        C  0.49437265  0.28073434  0.74208986    -0.04000
C773        C  0.49514110  0.28070612  0.72511045    -0.00200
C774        C  0.49265973  0.30717520  0.71630266    -0.02800
C775        C  0.98973338  0.36487679  0.74648408     0.36500
C776        C  0.50201318  0.25495460  0.71574824     0.40100
C777        C  0.99546351  0.31448154  0.76492381     0.39200
C778        C  0.49092202  0.30623964  0.69929766     0.36100
C779        C  0.03987885  0.36978319  0.71884088     0.36800
C780        C  0.44095442  0.40409563  0.68630463     0.40100
N781        N  0.99673342  0.32063399  0.77802236    -0.38000
N782        N  0.98826381  0.38769885  0.75239654    -0.39600
N783        N  0.50818035  0.23579387  0.70736956    -0.37300
N784        N  0.48931087  0.30558311  0.68579457    -0.39700
N785        N  0.41769501  0.34651545  0.71080944    -0.39500
N786        N  0.41993129  0.41168969  0.67979721    -0.37100
N787        N  0.06036394  0.43182812  0.69682909    -0.38200
N788        N  0.06091194  0.36264343  0.72546542    -0.39800
C789        C  0.10749879  0.28114880  0.80109528    -0.04800
C790        C  0.10285764  0.25716868  0.79106937     0.09400
C791        C  0.12322011  0.23297572  0.79120695    -0.02200
C792        C  0.14676958  0.23205100  0.80189424    -0.00400
C793        C  0.15030905  0.25532292  0.81249392    -0.04000
C794        C  0.13092701  0.28015860  0.81177712     0.03000
C795        C  0.07537331  0.25674340  0.78135066     0.09800
C796        C  0.11976846  0.20850529  0.78070427     0.35700
C797        C  0.13512336  0.30486864  0.82207077     0.39100
C798        C  0.07580141  0.26199250  0.76518571    -0.04400
C799        C  0.05016330  0.25986906  0.75602834     0.02800
C800        C  0.02200949  0.25533028  0.76306857    -0.04000
C801        C  0.02208549  0.25522992  0.78003734    -0.00200
C802        C  0.04844908  0.25299623  0.78864610    -0.02800
C803        C  0.10309612  0.26938741  0.75790811     0.36500
C804        C  0.99644396  0.26121194  0.78953224     0.40100
C805        C  0.05454815  0.25996604  0.73924936     0.39200
C806        C  0.04785756  0.24776281  0.80544319     0.36100
C807        C  0.08767661  0.30670138  0.80065400     0.36800
C808        C  0.16637702  0.20633147  0.80260279     0.40100
N809        N  0.06061699  0.25982701  0.72610801    -0.38000
N810        N  0.12480386  0.27554741  0.75217091    -0.39600
N811        N  0.47697109  0.26628266  0.79885651    -0.37300
N812        N  0.04747415  0.24363870  0.81880622    -0.39700
N813        N  0.11797952  0.18861534  0.77243462    -0.39500
N814        N  0.18186513  0.18571346  0.80320499    -0.37100
N815        N  0.13848349  0.32467225  0.83021302    -0.38200
N816        N  0.07178254  0.32702777  0.80036430    -0.39800
C817        C  0.38494754  0.27122126  0.80517634    -0.04800
C818        C  0.38768287  0.24793268  0.79430218     0.09400
C819        C  0.36743222  0.22542639  0.79481034    -0.02200
C820        C  0.34586480  0.22537996  0.80659644    -0.00400
C821        C  0.34218872  0.24940253  0.81690848    -0.04000
C822        C  0.36191301  0.27235484  0.81610699     0.03000
C823        C  0.41236153  0.24708009  0.78262862     0.09800
C824        C  0.36852869  0.20245257  0.78310173     0.35700
C825        C  0.35869326  0.29729802  0.82653446     0.39100
C826        C  0.43457193  0.22517184  0.78342027    -0.04400
C827        C  0.45890468  0.22561449  0.77321186     0.02800
C828        C  0.46374985  0.25036244  0.76298564    -0.04000
C829        C  0.43912775  0.27121885  0.76164620    -0.00200
C830        C  0.41399909  0.26894916  0.77116022    -0.02800
C831        C  0.43336100  0.20297590  0.79565942     0.36500
C832        C  0.43634061  0.29364185  0.74963918     0.40100
C833        C  0.47970787  0.20110777  0.77493746     0.39200
C834        C  0.38891478  0.28907342  0.76896208     0.36100
C835        C  0.40591442  0.29415979  0.80513157     0.36800
C836        C  0.32957448  0.19926884  0.80914068     0.40100
N837        N  0.49442232  0.18047510  0.77751274    -0.38000
N838        N  0.43246519  0.18544042  0.80545040    -0.39600
N839        N  0.43208325  0.31148925  0.74016626    -0.37300
N840        N  0.36896314  0.30500883  0.76720047    -0.39700
N841        N  0.36925380  0.18419331  0.77371550    -0.39500
N842        N  0.31749254  0.17795483  0.81153014    -0.37100
N843        N  0.35657327  0.31730892  0.83480438    -0.38200
N844        N  0.42251112  0.31254940  0.80499662    -0.39800
C845        C  0.32087281  0.02702656  0.73015820    -0.04800
C846        C  0.32530697  0.00582604  0.71852687     0.09400
C847        C  0.30306226  0.48264911  0.71596240    -0.02200
C848        C  0.27751124  0.48223607  0.72535840    -0.00400
C849        C  0.27456557  0.00488538  0.73867145    -0.04000
C850        C  0.29489493  0.02842947  0.73904017     0.03000
C851        C  0.35094417  0.00762505  0.70767859     0.09800
C852        C  0.30799696  0.46122370  0.70359589     0.35700
C853        C  0.28865802  0.05687569  0.74608721     0.39100
C854        C  0.37653622  0.48757961  0.71146449    -0.04400
C855        C  0.40135974  0.49033357  0.70184458     0.02800
C856        C  0.39960741  0.01274115  0.68735090    -0.04000
C857        C  0.37386190  0.03052229  0.68510692    -0.00200
C858        C  0.34958421  0.02749242  0.69500845    -0.02800
C859        C  0.37773035  0.46730215  0.72454915     0.36500
C860        C  0.37247124  0.05295882  0.67302907     0.40100
C861        C  0.42767720  0.47320574  0.70550736     0.39200
C862        C  0.32285764  0.04467023  0.69211791     0.36100
C863        C  0.34269587  0.04891466  0.73228159     0.36800
C864        C  0.25807781  0.45879346  0.72217440     0.40100
N865        N  0.44867846  0.45987812  0.70886353    -0.38000
N866        N  0.37955707  0.45096735  0.73492022    -0.39600
N867        N  0.37100629  0.07120324  0.66358709    -0.37300
N868        N  0.30139346  0.05813034  0.68989721    -0.39700
N869        N  0.31200023  0.44402586  0.69381448    -0.39500
N870        N  0.24401205  0.43942853  0.71864079    -0.37100
N871        N  0.28475045  0.08034057  0.75099782    -0.38200
N872        N  0.35999299  0.06635815  0.73392324    -0.39800
C873        C  0.18957829  0.02225459  0.71709777    -0.04800
C874        C  0.16793533  0.00202504  0.71961367     0.09400
C875        C  0.16977518  0.47795881  0.73103232    -0.02200
C876        C  0.19667844  0.47560673  0.73893529    -0.00400
C877        C  0.21711342  0.49884549  0.73824752    -0.04000
C878        C  0.21429451  0.02267660  0.72699239     0.03000
C879        C  0.14229228  0.00085635  0.70880867     0.09800
C880        C  0.14749931  0.45693413  0.73410384     0.35700
C881        C  0.23259626  0.04748644  0.72489640     0.39100
C882        C  0.14192729  0.97880560  0.69728057    -0.04400
C883        C  0.11760680  0.97642661  0.68746267     0.02800
C884        C  0.09388112  0.99715871  0.68839730    -0.04000
C885        C  0.09095068  0.51640823  0.70020052    -0.00200
C886        C  0.11455777  0.51749486  0.71068489    -0.02800
C887        C  0.16700103  0.95878981  0.69530708     0.36500
C888        C  0.06760010  0.53863382  0.70122287     0.40100
C889        C  0.11701422  0.95212356  0.67656038     0.39200
C890        C  0.11384700  0.53912853  0.72308404     0.36100
C891        C  0.18609319  0.04308344  0.70425991     0.36800
C892        C  0.20410008  0.44646110  0.74476655     0.40100
N893        N  0.11669947  0.93246782  0.66803960    -0.38000
N894        N  0.18703532  0.94292872  0.69366909    -0.39600
N895        N  0.04926564  0.55664757  0.70221373    -0.37300
N896        N  0.11255407  0.55660501  0.73287483    -0.39700
N897        N  0.12971610  0.44029361  0.73655065    -0.39500
N898        N  0.20953646  0.42251382  0.74858549    -0.37100
N899        N  0.24532485  0.06832575  0.72231163    -0.38200
N900        N  0.18332208  0.05956050  0.69399163    -0.39800
C901        C  0.25277058  0.13270421  0.78960616    -0.04800
C902        C  0.24590939  0.10426366  0.79449238     0.09400
C903        C  0.23821507  0.09942082  0.81016616    -0.02200
C904        C  0.23871102  0.12240950  0.82116642    -0.00400
C905        C  0.24629066  0.15132973  0.81656866    -0.04000
C906        C  0.25263208  0.15617677  0.80043123     0.03000
C907        C  0.24614008  0.07907937  0.78317494     0.09800
C908        C  0.22925394  0.07046294  0.81491251     0.35700
C909        C  0.25928937  0.18508472  0.79462607     0.39100
C910        C  0.26771291  0.05655288  0.78420423    -0.04400
C911        C  0.26746751  0.03201015  0.77411031     0.02800
C912        C  0.24512630  0.02914065  0.76238631    -0.04000
C913        C  0.22166503  0.05134162  0.76291273    -0.00200
C914        C  0.22330323  0.07646160  0.77254763    -0.02800
C915        C  0.29111099  0.05929780  0.79546072     0.36500
C916        C  0.19365414  0.04822880  0.75556916     0.40100
C917        C  0.29222280  0.01142453  0.77542684     0.39200
C918        C  0.20058756  0.09963064  0.77197720     0.36100
C919        C  0.25967429  0.13791356  0.77328695     0.36800
C920        C  0.23068198  0.11540112  0.83710588     0.40100
N921        N  0.31282360  0.99645556  0.77734466    -0.38000
N922        N  0.30970749  0.06141608  0.80442716    -0.39600
N923        N  0.17048297  0.04680023  0.75048352    -0.37300
N924        N  0.18268592  0.11818550  0.77146584    -0.39700
N925        N  0.22215340  0.04736535  0.81857908    -0.39500
N926        N  0.22436463  0.10843014  0.84963718    -0.37100
N927        N  0.26469258  0.20796154  0.78977000    -0.38200
N928        N  0.26487990  0.14232688  0.76026295    -0.39800
C929        C  0.26967278  0.42418124  0.76974570    -0.04800
C930        C  0.24803041  0.42086129  0.78106189     0.09400
C931        C  0.22729707  0.44378999  0.78333589    -0.02200
C932        C  0.22655545  0.46902916  0.77352843    -0.00400
C933        C  0.24781650  0.47286678  0.76122568    -0.04000
C934        C  0.27098068  0.45038068  0.76078378     0.03000
C935        C  0.24854038  0.39419215  0.79157132     0.09800
C936        C  0.20615711  0.44101149  0.79586103     0.35700
C937        C  0.29855322  0.45408875  0.75313320     0.39100
C938        C  0.26873067  0.39176581  0.80397537    -0.04400
C939        C  0.26855207  0.36757839  0.81432239     0.02800
C940        C  0.24769991  0.34583488  0.81267403    -0.04000
C941        C  0.22834651  0.34755585  0.79988351    -0.00200
C942        C  0.22864213  0.37168955  0.78943740    -0.02800
C943        C  0.28924805  0.41466210  0.80638164     0.36500
C944        C  0.20745421  0.32497909  0.79769695     0.40100
C945        C  0.29038460  0.36484843  0.82649812     0.39200
C946        C  0.20778236  0.37352589  0.77677920     0.36100
C947        C  0.29149956  0.40049428  0.76767952     0.36800
C948        C  0.20229528  0.48965144  0.77617694     0.40100
N949        N  0.30809363  0.36293786  0.83606955    -0.38000
N950        N  0.30562089  0.43288384  0.80835228    -0.39600
N951        N  0.19086635  0.30694871  0.79578754    -0.37300
N952        N  0.19059398  0.37418686  0.76691424    -0.39700
N953        N  0.18941127  0.43865902  0.80584814    -0.39500
N954        N  0.18216906  0.50442614  0.77943173    -0.37100
N955        N  0.32152040  0.45582009  0.74781885    -0.38200
N956        N  0.30889759  0.38169670  0.76605911    -0.39800
C957        C  0.07009096  0.22829972  0.04045012    -0.04800
C958        C  0.08939084  0.25139914  0.04177781     0.09400
C959        C  0.08681753  0.27540450  0.03134363    -0.02200
C960        C  0.06370794  0.27746022  0.02047190    -0.00400
C961        C  0.04404471  0.25450371  0.01920522    -0.04000
C962        C  0.04767028  0.22972957  0.02920822     0.03000
C963        C  0.11060655  0.25158901  0.05510775     0.09800
C964        C  0.10743809  0.29858632  0.03222937     0.35700
C965        C  0.02706075  0.20648307  0.02872479     0.39100
C966        C  0.13518925  0.23210023  0.05524490    -0.04400
C967        C  0.15341918  0.23025228  0.06849901     0.02800
C968        C  0.14858230  0.24954923  0.08129616    -0.04000
C969        C  0.12467714  0.27005612  0.08080456    -0.00200
C970        C  0.10529816  0.27040600  0.06800319    -0.02800
C971        C  0.14196094  0.21422568  0.04161108     0.36500
C972        C  0.12062866  0.29183504  0.09302954     0.40100
C973        C  0.17654900  0.20767252  0.06913833     0.39200
C974        C  0.07974743  0.29014048  0.06810682     0.36100
C975        C  0.07250663  0.20359496  0.05118503     0.36800
C976        C  0.05854339  0.30478069  0.01207281     0.40100
N977        N  0.19477446  0.18944819  0.06967230    -0.38000
N978        N  0.14756557  0.20014971  0.03069036    -0.39600
N979        N  0.11724113  0.30964499  0.10254984    -0.37300
N980        N  0.05936090  0.30585758  0.06815860    -0.39700
N981        N  0.12389506  0.31705496  0.03293330    -0.39500
N982        N  0.05498564  0.32734894  0.00600011    -0.37100
N983        N  0.01041846  0.18813988  0.02850637    -0.38200
N984        N  0.07453312  0.18390758  0.05974864    -0.39800
C985        C  0.41095229  0.28846605  0.04164888    -0.04800
C986        C  0.39311494  0.26417149  0.04309036     0.09400
C987        C  0.39718826  0.24020299  0.03281671    -0.02200
C988        C  0.42033013  0.23952473  0.02195042    -0.00400
C989        C  0.43812242  0.26394210  0.02031826    -0.04000
C990        C  0.43317778  0.28848524  0.03026244     0.03000
C991        C  0.37202328  0.26265505  0.05643620     0.09800
C992        C  0.37815523  0.21566487  0.03389177     0.35700
C993        C  0.45218964  0.31306166  0.02952883     0.39100
C994        C  0.34625333  0.28041030  0.05648832    -0.04400
C995        C  0.32754197  0.28040233  0.06957840     0.02800
C996        C  0.33351958  0.26136201  0.08242463    -0.04000
C997        C  0.35937798  0.24346287  0.08227664    -0.00200
C998        C  0.37863237  0.24437237  0.06942904    -0.02800
C999        C  0.33895823  0.29863814  0.04299140     0.36500
C1000       C  0.36614713  0.22345011  0.09508964     0.40100
C1001       C  0.30310375  0.30139369  0.07011994     0.39200
C1002       C  0.40535626  0.22633897  0.06953893     0.36100
C1003       C  0.40721243  0.31291434  0.05240421     0.36800
C1004       C  0.42783623  0.21220516  0.01406161     0.40100
N1005       N  0.28410268  0.31875421  0.07042522    -0.38000
N1006       N  0.33312618  0.31310623  0.03220623    -0.39600
N1007       N  0.37216638  0.20723638  0.10512109    -0.37300
N1008       N  0.42659645  0.21186149  0.06956079    -0.39700
N1009       N  0.36292119  0.19615187  0.03476213    -0.39500
N1010       N  0.43361153  0.18966079  0.00844320    -0.37100
N1011       N  0.46740568  0.33263487  0.02908743    -0.38200
N1012       N  0.40405084  0.33231469  0.06102498    -0.39800
C1013       C  0.07215244  0.27812740  0.96209957    -0.04800
C1014       C  0.08487985  0.25020167  0.95859832     0.09400
C1015       C  0.07698259  0.22556218  0.96748085    -0.02200
C1016       C  0.05671133  0.22887214  0.97982136    -0.00400
C1017       C  0.04304513  0.25657883  0.98286720    -0.04000
C1018       C  0.05024138  0.28100165  0.97356431     0.03000
C1019       C  0.10563256  0.24673848  0.94510186     0.09800
C1020       C  0.08870444  0.19653613  0.96343986     0.35700
C1021       C  0.03339293  0.30853230  0.97481394     0.39100
C1022       C  0.13519244  0.23937607  0.94777270    -0.04400
C1023       C  0.15497186  0.23760235  0.93516410     0.02800
C1024       C  0.14579365  0.24496480  0.91966238    -0.04000
C1025       C  0.11562791  0.25101760  0.91700595    -0.00200
C1026       C  0.09573064  0.25119312  0.92961986    -0.02800
C1027       C  0.14532570  0.23345940  0.96360138     0.36500
C1028       C  0.10457552  0.25766526  0.90145200     0.40100
C1029       C  0.18457087  0.22718361  0.93839204     0.39200
C1030       C  0.06481270  0.25576704  0.92667952     0.36100
C1031       C  0.08111182  0.30387944  0.95362027     0.36800
C1032       C  0.04804383  0.20317319  0.98839021     0.40100
N1033       N  0.20800216  0.21870889  0.94123727    -0.38000
N1034       N  0.15329444  0.22835158  0.97619044    -0.39600
N1035       N  0.09536220  0.26286514  0.88911465    -0.37300
N1036       N  0.04015768  0.25927786  0.92435837    -0.39700
N1037       N  0.09811565  0.17340531  0.96022151    -0.39500
N1038       N  0.04128311  0.18232678  0.99498593    -0.37100
N1039       N  0.01965258  0.33031568  0.97563557    -0.38200
N1040       N  0.08827138  0.32445223  0.94690243    -0.39800
C1041       C  0.39998449  0.29277067  0.96986507    -0.04800
C1042       C  0.39252286  0.26786263  0.96124301     0.09400
C1043       C  0.40692475  0.24057593  0.96423606    -0.02200
C1044       C  0.42992093  0.23853700  0.97508718    -0.00400
C1045       C  0.43704765  0.26325987  0.98412348    -0.04000
C1046       C  0.42162513  0.29033439  0.98156787     0.03000
C1047       C  0.37024671  0.27027586  0.94850310     0.09800
C1048       C  0.39857643  0.21475105  0.95571590     0.35700
C1049       C  0.42932203  0.31628173  0.99010030     0.39100
C1050       C  0.37828507  0.27884590  0.93332224    -0.04400
C1051       C  0.35812018  0.27822473  0.92089778     0.02800
C1052       C  0.32948934  0.26848172  0.92346327    -0.04000
C1053       C  0.32105565  0.26213097  0.93919143    -0.00200
C1054       C  0.34157264  0.26240358  0.95145547    -0.02800
C1055       C  0.40774251  0.28770205  0.93042679     0.36500
C1056       C  0.29159694  0.25457412  0.94310897     0.40100
C1057       C  0.36714177  0.28851647  0.90563801     0.39200
C1058       C  0.33356160  0.25351947  0.96716391     0.36100
C1059       C  0.38635391  0.32116413  0.96610302     0.36800
C1060       C  0.44757724  0.21148890  0.97602693     0.40100
N1061       N  0.37475208  0.29685802  0.89356873    -0.38000
N1062       N  0.43121409  0.29477296  0.92810341    -0.39600
N1063       N  0.26822564  0.24852134  0.94646130    -0.37300
N1064       N  0.32746939  0.24621147  0.97968264    -0.39700
N1065       N  0.39158729  0.19423825  0.94896658    -0.39500
N1066       N  0.46179764  0.18997185  0.97650987    -0.37100
N1067       N  0.43504735  0.33740770  0.99668386    -0.38200
N1068       N  0.37575395  0.34384087  0.96289180    -0.39800
C1069       C  0.37688160  0.02766722  0.29232147    -0.04800
C1070       C  0.35820096  0.00384851  0.29154191     0.09400
C1071       C  0.36327962  0.47533795  0.29943990    -0.02200
C1072       C  0.38657038  0.47485617  0.31017967    -0.00400
C1073       C  0.40340929  0.00418939  0.31414566    -0.04000
C1074       C  0.39833366  0.02852084  0.30411068     0.03000
C1075       C  0.33278307  0.00453728  0.28038760     0.09800
C1076       C  0.34507687  0.45017859  0.29840428     0.35700
C1077       C  0.41262675  0.05567081  0.30705279     0.39100
C1078       C  0.32972840  0.48220943  0.26667881    -0.04400
C1079       C  0.30346572  0.47928306  0.25821206     0.02800
C1080       C  0.28050252  0.00088211  0.26161158    -0.04000
C1081       C  0.28453432  0.02435843  0.27267699    -0.00200
C1082       C  0.30945752  0.02492329  0.28238630    -0.02800
C1083       C  0.35601243  0.46541271  0.26221198     0.36500
C1084       C  0.26191126  0.04650095  0.27607399     0.40100
C1085       C  0.30505966  0.45671824  0.24629055     0.39200
C1086       C  0.31028694  0.04554969  0.29533054     0.36100
C1087       C  0.37389600  0.05135214  0.28099231     0.36800
C1088       C  0.39364296  0.44844302  0.31915796     0.40100
N1089       N  0.30841864  0.43867559  0.23687517    -0.38000
N1090       N  0.37691404  0.45224389  0.25851468    -0.39600
N1091       N  0.24532806  0.06474313  0.28004747    -0.37300
N1092       N  0.31090809  0.06183375  0.30567476    -0.39700
N1093       N  0.33052631  0.43013445  0.29758580    -0.39500
N1094       N  0.39946131  0.42740943  0.32629967    -0.37100
N1095       N  0.42309798  0.07779364  0.30961983    -0.38200
N1096       N  0.37142692  0.07008502  0.27186162    -0.39800
C1097       C  0.12456458  0.46885332  0.29409326    -0.04800
C1098       C  0.14427656  0.99165667  0.29304016     0.09400
C1099       C  0.13773088  0.01718836  0.30192864    -0.02200
C1100       C  0.11376784  0.01830503  0.31223701    -0.00400
C1101       C  0.09506825  0.99454524  0.31322591    -0.04000
C1102       C  0.10022872  0.46962580  0.30422772     0.03000
C1103       C  0.17110456  0.99007829  0.28283843     0.09800
C1104       C  0.15598033  0.04229348  0.30071425     0.35700
C1105       C  0.08289639  0.44394557  0.30588927     0.39100
C1106       C  0.16885389  0.99075136  0.26650785    -0.04400
C1107       C  0.19397899  0.99242600  0.25692328     0.02800
C1108       C  0.22276076  0.99493602  0.26349908    -0.04000
C1109       C  0.22211405  0.49042060  0.27979543    -0.00200
C1110       C  0.19671054  0.49026707  0.28922477    -0.02800
C1111       C  0.14005135  0.99130231  0.25951708     0.36500
C1112       C  0.24863560  0.48218563  0.28815554     0.40100
C1113       C  0.18840787  0.99402379  0.24026296     0.39200
C1114       C  0.19900999  0.48668471  0.30612835     0.36100
C1115       C  0.13204053  0.44234558  0.28539044     0.36800
C1116       C  0.10857639  0.04394924  0.32201851     0.40100
N1117       N  0.18110362  0.99515136  0.22732076    -0.38000
N1118       N  0.11710507  0.99168868  0.25399819    -0.39600
N1119       N  0.26871862  0.47462969  0.29549787    -0.37300
N1120       N  0.20087843  0.48377535  0.31954930    -0.39700
N1121       N  0.17042593  0.06242723  0.29992357    -0.39500
N1122       N  0.10472003  0.06427601  0.32993547    -0.37100
N1123       N  0.06917736  0.42337923  0.30722235    -0.38200
N1124       N  0.13798751  0.42122179  0.27841409    -0.39800
C1125       C  0.27202528  0.06540117  0.22401197    -0.04800
C1126       C  0.24770240  0.08490162  0.22435680     0.09400
C1127       C  0.22544206  0.07970766  0.23508641    -0.02200
C1128       C  0.22605972  0.05396023  0.24459902    -0.00400
C1129       C  0.24899195  0.03126713  0.24309498    -0.04000
C1130       C  0.27292771  0.03919363  0.23307091     0.03000
C1131       C  0.24521569  0.11034378  0.21291833     0.09800
C1132       C  0.20180858  0.10175633  0.23651551     0.35700
C1133       C  0.29756302  0.01931843  0.22985127     0.39100
C1134       C  0.22499307  0.11002870  0.20046034    -0.04400
C1135       C  0.22448833  0.13229943  0.18889465     0.02800
C1136       C  0.24439467  0.15508978  0.18947547    -0.04000
C1137       C  0.26365771  0.15620327  0.20233763    -0.00200
C1138       C  0.26380448  0.13418851  0.21406724    -0.02800
C1139       C  0.20423084  0.08702453  0.19959278     0.36500
C1140       C  0.28405133  0.17948451  0.20336390     0.40100
C1141       C  0.20227399  0.13264455  0.17685446     0.39200
C1142       C  0.28308432  0.13612657  0.22740094     0.36100
C1143       C  0.29579143  0.07154192  0.21339447     0.36800
C1144       C  0.20336258  0.05369465  0.25630502     0.40100
N1145       N  0.18426719  0.13314515  0.16741542    -0.38000
N1146       N  0.18719818  0.06910211  0.19889952    -0.39600
N1147       N  0.30049711  0.19788103  0.20438938    -0.37300
N1148       N  0.29850096  0.13772312  0.23801813    -0.39700
N1149       N  0.18303771  0.11931267  0.23759118    -0.39500
N1150       N  0.18480359  0.05564638  0.26543512    -0.37100
N1151       N  0.31782274  0.00536648  0.22592533    -0.38200
N1152       N  0.31474871  0.07650789  0.20501783    -0.39800
C1153       C  0.21804775  0.37731019  0.20893605    -0.04800
C1154       C  0.24374965  0.39319493  0.20963259     0.09400
C1155       C  0.26783922  0.38449210  0.20023345    -0.02200
C1156       C  0.26572604  0.36096287  0.18970146    -0.00400
C1157       C  0.23965524  0.34587545  0.18861433    -0.04000
C1158       C  0.21609502  0.35357989  0.19851099     0.03000
C1159       C  0.24493244  0.41975078  0.21990340     0.09800
C1160       C  0.29464942  0.39999793  0.20122432     0.35700
C1161       C  0.18955158  0.33766495  0.19765851     0.39100
C1162       C  0.24584989  0.41666443  0.23614812    -0.04400
C1163       C  0.24570649  0.44162575  0.24599680     0.02800
C1164       C  0.24622213  0.47124467  0.23975120    -0.04000
C1165       C  0.24311960  0.47327838  0.22285704    -0.00200
C1166       C  0.24343257  0.44787000  0.21330893    -0.02800
C1167       C  0.24842177  0.38714113  0.24272283     0.36500
C1168       C  0.23645179  0.50026045  0.21441023     0.40100
C1169       C  0.24741570  0.43487441  0.26252409     0.39200
C1170       C  0.24125914  0.45050803  0.19634462     0.36100
C1171       C  0.19339704  0.38579540  0.21875134     0.36800
C1172       C  0.29041625  0.35207545  0.17997991     0.40100
N1173       N  0.24881466  0.42573793  0.27515770    -0.38000
N1174       N  0.25058201  0.36363007  0.24785509    -0.39600
N1175       N  0.23067117  0.52058139  0.20671599    -0.37300
N1176       N  0.23964096  0.45250069  0.18286954    -0.39700
N1177       N  0.31607486  0.41234474  0.20187193    -0.39500
N1178       N  0.30999665  0.34477048  0.17221381    -0.37100
N1179       N  0.16830539  0.32503520  0.19710463    -0.38200
N1180       N  0.17388635  0.39251541  0.22669666    -0.39800
C1181       C  0.25031869  0.99986198  0.25210027    -0.01800
C1182       C  0.46426376  0.76721273  0.99333316     0.03000
C1183       C  0.46364980  0.76626822  0.00987191     0.02900
C1184       C  0.49012664  0.76435987  0.01804098    -0.17600
C1185       C  0.01973128  0.75405115  0.00920484     0.03000
C1186       C  0.01891168  0.75300133  0.99263065     0.02900
C1187       C  0.49107100  0.76715784  0.98559396    -0.17600
H1188       H  0.49140380  0.76790198  0.97289958     0.05000
H1189       H  0.48974995  0.76350685  0.03072448     0.05000
C1190       C  0.24728526  0.00205004  0.75041847    -0.01800
C1191       C  0.49365018  0.75304418  0.75123584    -0.01800
C1192       C  0.24868901  0.97313363  0.99304354     0.03000
C1193       C  0.24955714  0.97226902  0.00962732     0.02900
C1194       C  0.25448322  0.99815031  0.01792991    -0.17600
C1195       C  0.25766592  0.52736884  0.01044747     0.03000
C1196       C  0.25881037  0.52762474  0.99390404     0.02900
C1197       C  0.25272090  0.00016797  0.98545466    -0.17600
H1198       H  0.25198851  0.00102189  0.97277828     0.05000
H1199       H  0.25487316  0.99740242  0.03061721     0.05000
O1200       O  0.32290438  0.76088625  0.89331237    -0.74600
O1201       O  0.28694128  0.75497225  0.91094666    -0.53500
C1202       C  0.31344399  0.75993930  0.90747817     0.79100
O1203       O  0.24415036  0.83280844  0.83995894    -0.59200
O1204       O  0.24668423  0.79678951  0.82139184    -0.52200
C1205       C  0.24640315  0.82392368  0.82568764     0.71100
O1206       O  0.23661625  0.83227822  0.89303787    -0.73800
O1207       O  0.23734785  0.79519380  0.91104915    -0.54300
C1208       C  0.23592177  0.82250939  0.90725181     0.77100
O1209       O  0.32711539  0.75095148  0.84129690    -0.58900
O1210       O  0.29249101  0.74750661  0.82233282    -0.52000
C1211       C  0.31912007  0.74883496  0.82695798     0.73700
Zr1212     Zr  0.30452254  0.75191049  0.86699613     2.54700
O1213       O  0.34187619  0.78804677  0.86559121    -0.79500
O1214       O  0.34015066  0.71111430  0.86932790    -0.92900
Zr1215     Zr  0.23954012  0.81216282  0.86628389     2.64700
O1216       O  0.27191684  0.85268654  0.86895891    -0.97800
O1217       O  0.19673372  0.84505500  0.86413960    -0.79900
O1218       O  0.27193428  0.78257219  0.88166192    -0.83300
O1219       O  0.27318848  0.78238009  0.85144531    -2.18000
O1220       O  0.24533084  0.66782273  0.84015810    -0.66700
O1221       O  0.24347000  0.70386039  0.82161177    -0.51200
C1222       C  0.24345827  0.67660682  0.82581354     0.72100
O1223       O  0.16254503  0.74196529  0.89190669    -0.59600
O1224       O  0.19750536  0.74629376  0.91029688    -0.51500
C1225       C  0.17103348  0.74246523  0.90629342     0.73900
O1226       O  0.16347252  0.75364085  0.83902248    -0.71000
O1227       O  0.19992431  0.75307804  0.82081268    -0.49600
C1228       C  0.17285366  0.75437943  0.82481213     0.75300
O1229       O  0.25219613  0.66798585  0.89280146    -0.66300
O1230       O  0.24808086  0.70484936  0.91078912    -0.53500
C1231       C  0.25153483  0.67763445  0.90698382     0.73700
Zr1232     Zr  0.24730075  0.68903726  0.86640598     2.77500
O1233       O  0.20597296  0.65857559  0.87050104    -0.97000
O1234       O  0.28296168  0.64832776  0.86423490    -0.77900
Zr1235     Zr  0.18290571  0.74914171  0.86560932     2.70100
O1236       O  0.14958427  0.70943958  0.86273669    -0.79100
O1237       O  0.14407653  0.78677752  0.86791367    -0.98200
Zr1238     Zr  0.24270354  0.75036381  0.89614099     2.21500
Zr1239     Zr  0.24526745  0.75043561  0.83575802     2.11100
O1240       O  0.21552300  0.71899460  0.85069858    -2.46900
O1241       O  0.21420749  0.71865133  0.88118275    -0.78900
O1242       O  0.27712510  0.71997719  0.85141166    -0.71100
O1243       O  0.21004230  0.78101161  0.88114249    -2.32000
O1244       O  0.27633365  0.71975782  0.88180993    -2.28300
O1245       O  0.21181933  0.78085106  0.85056643    -0.72900
H1246       H  0.28511039  0.79447288  0.84502468     0.79100
H1247       H  0.19687816  0.79248993  0.88785069     0.80200
H1248       H  0.20396467  0.70695462  0.84389334     0.82500
H1249       H  0.28901432  0.70841492  0.88866770     0.80100
H1250       H  0.20409271  0.86344675  0.85974099     0.43100
H1251       H  0.15242086  0.80467521  0.86349512     0.42100
H1252       H  0.13002188  0.71904671  0.86381933     0.41700
H1253       H  0.19296463  0.66300922  0.86152624     0.39700
H1254       H  0.27333930  0.63139299  0.86895251     0.42800
H1255       H  0.32883268  0.69332765  0.86784136     0.37600
H1256       H  0.33094923  0.80708940  0.86448007     0.43700
H1257       H  0.29082049  0.84491101  0.86490321     0.40100
H1258       H  0.21385840  0.63834295  0.86875749     0.45000
H1259       H  0.34567900  0.71058451  0.88051238     0.43800
H1260       H  0.26511631  0.86756305  0.86118838     0.43900
H1261       H  0.12926643  0.78124655  0.86019601     0.44300
O1262       O  0.32127594  0.75311280  0.16252344    -0.74600
O1263       O  0.28522710  0.75121490  0.18083179    -0.53500
C1264       C  0.31217853  0.75166958  0.17680543     0.79100
O1265       O  0.22404966  0.83239268  0.10899463    -0.59200
O1266       O  0.23242800  0.79622280  0.09119594    -0.52200
C1267       C  0.22575366  0.82299831  0.09475283     0.71100
O1268       O  0.23863010  0.83413682  0.16173968    -0.73800
O1269       O  0.23943678  0.79797796  0.18038788    -0.54300
C1270       C  0.23995009  0.82504282  0.17600503     0.77100
O1271       O  0.32114428  0.75768721  0.10914970    -0.58900
O1272       O  0.28440057  0.75602652  0.09135127    -0.52000
C1273       C  0.31134540  0.75780585  0.09497407     0.73700
Zr1274     Zr  0.30099241  0.75573508  0.13592118     2.54700
O1275       O  0.33036637  0.79879970  0.13775112    -0.79500
O1276       O  0.34329416  0.72239364  0.13343810    -0.92900
Zr1277     Zr  0.23412029  0.81341685  0.13561444     2.64700
O1278       O  0.27133392  0.84948534  0.13248478    -0.97800
O1279       O  0.19528257  0.85087561  0.13855174    -0.79900
O1280       O  0.26734465  0.78445201  0.15105302    -0.83300
O1281       O  0.26814486  0.78526337  0.12059450    -2.18000
O1282       O  0.25634798  0.67134365  0.10959812    -0.66700
O1283       O  0.24609137  0.70713375  0.09178304    -0.51200
C1284       C  0.25364793  0.68061351  0.09537037     0.72100
O1285       O  0.15832920  0.74761386  0.16212820    -0.59600
O1286       O  0.19380509  0.74995968  0.18070716    -0.51500
C1287       C  0.16700529  0.74867125  0.17641686     0.73900
O1288       O  0.15892284  0.74768679  0.10941605    -0.71000
O1289       O  0.19591483  0.74736358  0.09161578    -0.49600
C1290       C  0.16889994  0.74682123  0.09530145     0.75300
O1291       O  0.24615430  0.66918780  0.16247530    -0.66300
O1292       O  0.24280152  0.70529407  0.18092639    -0.53500
C1293       C  0.24473024  0.67809424  0.17677857     0.73700
Zr1294     Zr  0.24605583  0.69019628  0.13603810     2.77500
O1295       O  0.20779234  0.65517033  0.13358937    -0.97000
O1296       O  0.28344894  0.65105512  0.13789508    -0.77900
Zr1297     Zr  0.17931555  0.74825408  0.13595113     2.70100
O1298       O  0.14717559  0.70720067  0.13562247    -0.79100
O1299       O  0.13979111  0.78530094  0.13669238    -0.98200
Zr1300     Zr  0.23982864  0.75146435  0.16629614     2.21500
Zr1301     Zr  0.24015057  0.75188053  0.10632106     2.11100
O1302       O  0.21226147  0.71856354  0.12088782    -2.46900
O1303       O  0.21220009  0.71867875  0.15126894    -0.78900
O1304       O  0.27415073  0.72249772  0.12102976    -0.71100
O1305       O  0.20642047  0.78120827  0.15108027    -2.32000
O1306       O  0.27389879  0.72237678  0.15109890    -2.28300
O1307       O  0.20601426  0.78130153  0.12076116    -0.72900
H1308       H  0.27845358  0.79799887  0.11364057     0.79100
H1309       H  0.19350465  0.79276157  0.15785635     0.80200
H1310       H  0.20185548  0.70590826  0.11405128     0.82500
H1311       H  0.28674104  0.71069856  0.15771771     0.80100
H1312       H  0.18144188  0.84230253  0.14598474     0.43100
H1313       H  0.14599567  0.80086806  0.12946995     0.42100
H1314       H  0.12739421  0.71642207  0.13645607     0.41700
H1315       H  0.20472957  0.65304175  0.12219478     0.39700
H1316       H  0.30187525  0.66140475  0.13864041     0.42800
H1317       H  0.33750023  0.70411739  0.13863614     0.37600
H1318       H  0.32857569  0.80835621  0.12736057     0.43700
H1319       H  0.27429449  0.85133884  0.12105520     0.40100
H1320       H  0.21707875  0.63618527  0.13688561     0.45000
H1321       H  0.35815576  0.73053635  0.14036109     0.43800
H1322       H  0.26167672  0.86834725  0.13563990     0.43900
H1323       H  0.12340199  0.77621527  0.13132156     0.44300
O1324       O  0.49010528  0.92233737  0.66250111    -0.74600
O1325       O  0.49455761  0.95861011  0.68065334    -0.53500
C1326       C  0.49182584  0.93162865  0.67669330     0.79100
O1327       O  0.07645585  0.49307391  0.60902747    -0.59200
O1328       O  0.03987094  0.49554543  0.59110755    -0.52200
C1329       C  0.06695451  0.49361432  0.59479441     0.71100
O1330       O  0.07620055  0.49275834  0.66193614    -0.73800
O1331       O  0.04082417  0.49904330  0.68051058    -0.54300
C1332       C  0.06759244  0.49532284  0.67621489     0.77100
O1333       O  0.49213439  0.92041989  0.60950761    -0.58900
O1334       O  0.49393932  0.95693824  0.59121583    -0.52000
C1335       C  0.49273374  0.92977297  0.59523951     0.73700
Zr1336     Zr  0.49098463  0.94214226  0.63581787     2.49500
O1337       O  0.02578259  0.89624779  0.63866887    -0.79500
O1338       O  0.44666936  0.91482352  0.63574757    -0.92900
Zr1339     Zr  0.05573439  0.49357213  0.63569864     2.64700
O1340       O  0.08831295  0.94632164  0.63717570    -0.97800
O1341       O  0.09831361  0.52339540  0.63655776    -0.79900
O1342       O  0.02523927  0.96568033  0.65185931    -0.83300
O1343       O  0.02592377  0.96352345  0.62138417    -2.18000
O1344       O  0.41529622  0.50815956  0.60980854    -0.66700
O1345       O  0.45179677  0.50463716  0.59173355    -0.51200
C1346       C  0.42481730  0.50722043  0.59560758     0.72100
O1347       O  0.50097063  0.58465739  0.66128946    -0.59600
O1348       O  0.49887990  0.54953846  0.68030672    -0.51500
C1349       C  0.50015456  0.57639224  0.67573630     0.73900
O1350       O  0.50631721  0.58020363  0.60810084    -0.71000
O1351       O  0.50056730  0.54336614  0.59066749    -0.49600
C1352       C  0.50481147  0.57028928  0.59401090     0.75300
O1353       O  0.41553605  0.51011910  0.66248419    -0.66300
O1354       O  0.45116680  0.50683866  0.68101131    -0.53500
C1355       C  0.42419960  0.50915977  0.67679923     0.73700
Zr1356     Zr  0.43614669  0.50793546  0.63623493     2.77500
O1357       O  0.40359353  0.55138454  0.63601816    -0.97000
O1358       O  0.39559210  0.97947648  0.63588171    -0.77900
Zr1359     Zr  0.50057988  0.56274910  0.63511116     2.70100
O1360       O  0.46216303  0.60091352  0.63349312    -0.79100
O1361       O  0.04307698  0.59407973  0.63607434    -0.98200
Zr1362     Zr  0.49741801  0.50309933  0.66657432     2.21500
Zr1363     Zr  0.49678500  0.49962390  0.60630525     2.11100
O1364       O  0.46781991  0.53510052  0.62044275    -2.46900
O1365       O  0.46824580  0.53645961  0.65103848    -0.78900
O1366       O  0.46335137  0.97599273  0.62007673    -0.71100
O1367       O  0.02877994  0.52933272  0.65069422    -2.32000
O1368       O  0.46331872  0.97708709  0.65065218    -2.28300
O1369       O  0.02900873  0.52865279  0.62042190    -0.72900
H1370       H  0.03681872  0.94981975  0.61485323     0.79100
H1371       H  0.04174962  0.53999845  0.65723991     0.80200
H1372       H  0.45687445  0.54792299  0.61347357     0.82500
H1373       H  0.45025676  0.96679784  0.65739540     0.80100
H1374       H  0.11504014  0.50908718  0.63590494     0.43100
H1375       H  0.05791243  0.58346604  0.62960278     0.42100
H1376       H  0.44598758  0.59326967  0.63972640     0.41700
H1377       H  0.40555996  0.55988286  0.62541657     0.39700
H1378       H  0.40397014  0.96047575  0.63974539     0.42800
H1379       H  0.45347402  0.89408714  0.63444820     0.37600
H1380       H  0.04333324  0.90392507  0.64362071     0.43700
H1381       H  0.08415252  0.93585351  0.62735399     0.40100
H1382       H  0.38386414  0.54353393  0.63616705     0.45000
H1383       H  0.43714623  0.92007111  0.62568597     0.43800
H1384       H  0.10841761  0.95282418  0.63583197     0.43900
H1385       H  0.03735807  0.61174752  0.62986270     0.44300
O1386       O  0.07940017  0.49661873  0.33975210    -0.74600
O1387       O  0.04390105  0.49309952  0.32127151    -0.53500
C1388       C  0.07064049  0.49462379  0.32552777     0.79100
O1389       O  0.49519616  0.91846399  0.39384059    -0.59200
O1390       O  0.49722431  0.95622163  0.41114791    -0.52200
C1391       C  0.49551071  0.92891804  0.40782417     0.71100
O1392       O  0.49801454  0.91565471  0.34119695    -0.73800
O1393       O  0.49865395  0.95107720  0.32230921    -0.54300
C1394       C  0.49813206  0.92410665  0.32680942     0.77100
O1395       O  0.07937081  0.50083375  0.39252457    -0.58900
O1396       O  0.04309220  0.49845555  0.41042072    -0.52000
C1397       C  0.07002063  0.50034834  0.40674962     0.73700
Zr1398     Zr  0.05924548  0.49662998  0.36608882     2.54700
O1399       O  0.09551654  0.95934454  0.36682860    -0.79500
O1400       O  0.09797032  0.53142228  0.36660793    -0.92900
Zr1401     Zr  0.49852061  0.93752657  0.36716933     2.64700
O1402       O  0.04105079  0.90162603  0.36726330    -0.97800
O1403       O  0.46116649  0.90131584  0.36678884    -0.79900
O1404       O  0.03075200  0.96750415  0.35073237    -0.83300
O1405       O  0.03030834  0.96899469  0.38113105    -2.18000
O1406       O  0.49457584  0.58360679  0.39029050    -0.66700
O1407       O  0.49611399  0.54716694  0.40861871    -0.51200
C1408       C  0.49493509  0.57435262  0.40462026     0.72100
O1409       O  0.41609959  0.50019865  0.33903461    -0.59600
O1410       O  0.45221338  0.50029797  0.32060883    -0.51500
C1411       C  0.42527704  0.50037386  0.32482103     0.73900
O1412       O  0.41561998  0.50038951  0.39185331    -0.71000
O1413       O  0.45224033  0.50073194  0.40972911    -0.49600
C1414       C  0.42515330  0.50042337  0.40608105     0.75300
O1415       O  0.49935515  0.57941783  0.33679347    -0.66300
O1416       O  0.50061065  0.54215636  0.31901313    -0.53500
C1417       C  0.50101495  0.56950858  0.32264270     0.73700
Zr1418     Zr  0.49596233  0.56140790  0.36393090     2.77500
O1419       O  0.45654889  0.59843901  0.36175494    -0.97000
O1420       O  0.02584158  0.60085198  0.36550894    -0.77900
Zr1421     Zr  0.43666529  0.50021215  0.36522543     2.70100
O1422       O  0.39779208  0.53797799  0.36481156    -0.79100
O1423       O  0.39925697  0.96902330  0.36560705    -0.98200
Zr1424     Zr  0.49841621  0.49791809  0.33477338     2.21500
Zr1425     Zr  0.49706258  0.50125005  0.39481779     2.11100
O1426       O  0.46540127  0.53245324  0.37960496    -2.46900
O1427       O  0.46622631  0.53013663  0.34931393    -0.78900
O1428       O  0.02791346  0.52909042  0.38045994    -0.71100
O1429       O  0.46800115  0.96930933  0.35174040    -2.32000
O1430       O  0.02803046  0.52770046  0.35065657    -2.28300
O1431       O  0.46829873  0.97036796  0.38196329    -0.72900
H1432       H  0.04239151  0.95770993  0.38826308     0.79100
H1433       H  0.45565630  0.95782510  0.34520793     0.80200
H1434       H  0.45306617  0.54484564  0.38614969     0.82500
H1435       H  0.03995881  0.53936939  0.34395431     0.80100
H1436       H  0.44338188  0.91238454  0.36330607     0.43100
H1437       H  0.40591793  0.95217633  0.37219895     0.42100
H1438       H  0.40667370  0.55517912  0.35993120     0.41700
H1439       H  0.46644539  0.61708466  0.36011660     0.39700
H1440       H  0.04577585  0.59200141  0.36635059     0.42800
H1441       H  0.09052676  0.54826031  0.36024397     0.37600
H1442       H  0.08930403  0.94671475  0.37554521     0.43700
H1443       H  0.05227978  0.90673195  0.37666492     0.40100
H1444       H  0.44729585  0.59448585  0.35156654     0.45000
H1445       H  0.11389718  0.52222751  0.36028617     0.43800
H1446       H  0.03193407  0.88303662  0.37009127     0.43900
H1447       H  0.38317153  0.97868783  0.37162058     0.44300
C1448       C  0.99967111  0.77526060  0.50866410     0.03000
C1449       C  0.00247893  0.77677479  0.49218840     0.02900
C1450       C  0.00455009  0.75067076  0.48358977    -0.17600
C1451       C  0.00465769  0.72307573  0.49081645     0.03000
C1452       C  0.00386117  0.72158454  0.50732786     0.02900
C1453       C  0.00071255  0.74766592  0.51589928    -0.17600
H1454       H  0.99964020  0.74645525  0.52857274     0.05000
H1455       H  0.00569857  0.75186139  0.47091811     0.05000
C1456       C  0.27375047  0.00954446  0.50900759     0.03000
C1457       C  0.27373659  0.00935919  0.49246594     0.02900
C1458       C  0.24705522  0.00994874  0.48458668    -0.17600
C1459       C  0.22044954  0.00895981  0.49257117     0.03000
C1460       C  0.22054330  0.00670571  0.50913351     0.02900
C1461       C  0.24720849  0.00810843  0.51702551    -0.17600
H1462       H  0.24738690  0.00736049  0.52971546     0.05000
H1463       H  0.24702717  0.01056158  0.47189219     0.05000
C1464       C  0.48960013  0.75025109  0.25022784    -0.01800
C1465       C  0.47671175  0.88109689  0.29056063    -0.04800
C1466       C  0.49297254  0.85446746  0.29269703     0.09400
C1467       C  0.51217131  0.85141111  0.30550841    -0.02200
C1468       C  0.51448679  0.87444440  0.31635001    -0.00400
C1469       C  0.49728709  0.90075714  0.31463493    -0.04000
C1470       C  0.47864721  0.90405647  0.30151568     0.03000
C1471       C  0.49075996  0.82999958  0.28108681     0.09800
C1472       C  0.53006473  0.82471144  0.30746489     0.35700
C1473       C  0.96239223  0.93034691  0.29810249     0.39100
C1474       C  0.01233989  0.82409167  0.26924573    -0.04400
C1475       C  0.01048503  0.80095120  0.25839576     0.02800
C1476       C  0.48915680  0.78035232  0.26016392    -0.04000
C1477       C  0.46545447  0.78789656  0.27073547    -0.00200
C1478       C  0.46645636  0.81244535  0.28089683    -0.02800
C1479       C  0.03604221  0.84423747  0.26829888     0.36500
C1480       C  0.44066936  0.76960183  0.27266828     0.40100
C1481       C  0.02820036  0.80443143  0.24452204     0.39200
C1482       C  0.44310996  0.81877327  0.29200665     0.36100
C1483       C  0.95823593  0.88370115  0.27640069     0.36800
C1484       C  0.53560911  0.87126276  0.32889485     0.40100
N1485       N  0.04224669  0.80885317  0.23359896    -0.38000
N1486       N  0.05487034  0.86024151  0.26756588    -0.39600
N1487       N  0.42029683  0.75627272  0.27513812    -0.37300
N1488       N  0.42465742  0.82406369  0.30089116    -0.39700
N1489       N  0.54480826  0.80378833  0.30920837    -0.39500
N1490       N  0.55274082  0.86836088  0.33872742    -0.37100
N1491       N  0.94870515  0.95174399  0.29574277    -0.38200
N1492       N  0.94325330  0.88650185  0.26559507    -0.39800
C1493       C  0.52341426  0.63787424  0.30052924    -0.04800
C1494       C  0.50310052  0.63916477  0.28818010     0.09400
C1495       C  0.48567877  0.61481094  0.28557059    -0.02200
C1496       C  0.48754080  0.59031382  0.29579422    -0.00400
C1497       C  0.50401299  0.59158962  0.30977292    -0.04000
C1498       C  0.52300887  0.61498871  0.31163827     0.03000
C1499       C  0.49958989  0.66682229  0.27855184     0.09800
C1500       C  0.46537184  0.61515011  0.27260129     0.35700
C1501       C  0.54295924  0.61532270  0.32472884     0.39100
C1502       C  0.00630878  0.66582402  0.26369830    -0.04400
C1503       C  0.00041321  0.69119796  0.25437603     0.02800
C1504       C  0.49429270  0.72117851  0.26083082    -0.04000
C1505       C  0.49318628  0.72031258  0.27772510    -0.00200
C1506       C  0.49118512  0.69339242  0.28581172    -0.02800
C1507       C  0.01943258  0.63942762  0.25673138     0.36500
C1508       C  0.49812442  0.74497179  0.28778788     0.40100
C1509       C  0.99994022  0.68632110  0.23762781     0.39200
C1510       C  0.48095904  0.69311158  0.30192668     0.36100
C1511       C  0.54477750  0.66030761  0.30177798     0.36800
C1512       C  0.47319858  0.56376451  0.29156005     0.40100
N1513       N  0.99969270  0.68046268  0.22446393    -0.38000
N1514       N  0.02993408  0.61837967  0.25123031    -0.39600
N1515       N  0.50263037  0.76314963  0.29677015    -0.37300
N1516       N  0.47258157  0.69277753  0.31469491    -0.39700
N1517       N  0.95199371  0.61167909  0.26303556    -0.39500
N1518       N  0.46242407  0.54242405  0.28776162    -0.37100
N1519       N  0.55905235  0.61609697  0.33508212    -0.38200
N1520       N  0.56184017  0.67817289  0.30264031    -0.39800
C1521       C  0.02007510  0.63526649  0.43076306    -0.04800
C1522       C  0.49508397  0.63433243  0.44392928     0.09400
C1523       C  0.48027778  0.60804723  0.44488617    -0.02200
C1524       C  0.47843704  0.58981257  0.43170194    -0.00400
C1525       C  0.49389394  0.59609758  0.41774868    -0.04000
C1526       C  0.01828431  0.61592653  0.41799791     0.03000
C1527       C  0.49372467  0.65526371  0.45738528     0.09800
C1528       C  0.46712544  0.59962752  0.45960733     0.35700
C1529       C  0.03710515  0.61979746  0.40460223     0.39100
C1530       C  0.46771810  0.67167804  0.46040607    -0.04400
C1531       C  0.46637224  0.69215657  0.47269880     0.02800
C1532       C  0.00331099  0.69714435  0.48033464    -0.04000
C1533       C  0.02732093  0.67707011  0.47861205    -0.00200
C1534       C  0.02648572  0.65445690  0.46741004    -0.02800
C1535       C  0.44265102  0.66836595  0.45037166     0.36500
C1536       C  0.05402306  0.68124297  0.48708864     0.40100
C1537       C  0.43976355  0.70978614  0.47512757     0.39200
C1538       C  0.05036144  0.63279102  0.46619816     0.36100
C1539       C  0.03978421  0.65929631  0.43013957     0.36800
C1540       C  0.45987154  0.56498192  0.43267360     0.40100
N1541       N  0.41856618  0.72387578  0.47699824    -0.38000
N1542       N  0.42275474  0.66568644  0.44232172    -0.39600
N1543       N  0.07592727  0.68434219  0.49335808    -0.37300
N1544       N  0.06930313  0.61541062  0.46518343    -0.39700
N1545       N  0.45688848  0.59284169  0.47138046    -0.39500
N1546       N  0.44473565  0.54551289  0.43396235    -0.37100
N1547       N  0.05240771  0.62342669  0.39408828    -0.38200
N1548       N  0.05565189  0.67832529  0.42972984    -0.39800
C1549       C  0.01572063  0.89691391  0.44746195    -0.04800
C1550       C  0.00074652  0.87064635  0.44677926     0.09400
C1551       C  0.47510406  0.86403485  0.43324212    -0.02200
C1552       C  0.47527710  0.88432725  0.42078193    -0.00400
C1553       C  0.49420511  0.90804254  0.42117736    -0.04000
C1554       C  0.01710553  0.91508119  0.43416555     0.03000
C1555       C  0.00201277  0.84965171  0.46021746     0.09800
C1556       C  0.45769487  0.83827624  0.43221768     0.35700
C1557       C  0.03582397  0.93985181  0.43462468     0.39100
C1558       C  0.46904718  0.84599938  0.47017450    -0.04400
C1559       C  0.46855027  0.82410287  0.48184740     0.02800
C1560       C  0.00319812  0.80452388  0.48301569    -0.04000
C1561       C  0.02843924  0.81026660  0.47418326    -0.00200
C1562       C  0.02796108  0.83307744  0.46308479    -0.02800
C1563       C  0.44495199  0.86733582  0.46862915     0.36500
C1564       C  0.05418981  0.79088619  0.47533273     0.40100
C1565       C  0.44264936  0.82130859  0.49127940     0.39200
C1566       C  0.05367202  0.83812110  0.45374393     0.36100
C1567       C  0.03027457  0.90495366  0.46179629     0.36800
C1568       C  0.45490833  0.88141415  0.40799997     0.40100
N1569       N  0.42156669  0.81939059  0.49852358    -0.38000
N1570       N  0.42580337  0.88441028  0.46731262    -0.39600
N1571       N  0.07460187  0.77525234  0.47599576    -0.37300
N1572       N  0.07407003  0.84230147  0.44626751    -0.39700
N1573       N  0.44401798  0.81759808  0.43138794    -0.39500
N1574       N  0.43829999  0.87904059  0.39798063    -0.37100
N1575       N  0.05115703  0.95925243  0.43532998    -0.38200
N1576       N  0.04200911  0.91142818  0.47316289    -0.39800
C1577       C  0.15604693  0.98602203  0.46813743    -0.04800
C1578       C  0.15060811  0.01151323  0.45900631     0.09400
C1579       C  0.16756074  0.52872430  0.46103795    -0.02200
C1580       C  0.18844718  0.53001345  0.47299839    -0.00400
C1581       C  0.19372118  0.01067455  0.48269899    -0.04000
C1582       C  0.17802895  0.98533165  0.47965992     0.03000
C1583       C  0.12987485  0.01096430  0.44548311     0.09800
C1584       C  0.16236104  0.55363876  0.45065424     0.35700
C1585       C  0.18624982  0.95773736  0.48720300     0.39100
C1586       C  0.10263287  0.51261906  0.44745439    -0.04400
C1587       C  0.08314438  0.51354551  0.43472565     0.02800
C1588       C  0.09006539  0.00819453  0.41997414    -0.04000
C1589       C  0.11908803  0.99653173  0.41857171    -0.00200
C1590       C  0.13897775  0.99883920  0.43105530    -0.02800
C1591       C  0.09336589  0.52363213  0.46266448     0.36500
C1592       C  0.12850324  0.98049152  0.40471941     0.40100
C1593       C  0.05472076  0.52774424  0.43704292     0.39200
C1594       C  0.16905013  0.98869593  0.42906381     0.36100
C1595       C  0.13924714  0.96029842  0.46545450     0.36800
C1596       C  0.20489745  0.55633331  0.47462862     0.40100
N1597       N  0.03223845  0.53921826  0.43928053    -0.38000
N1598       N  0.08602088  0.53235907  0.47480036    -0.39600
N1599       N  0.13642890  0.96736605  0.39385080    -0.37300
N1600       N  0.19306804  0.98082258  0.42740897    -0.39700
N1601       N  0.15822010  0.57335746  0.44227934    -0.39500
N1602       N  0.21810070  0.57726792  0.47583961    -0.37100
N1603       N  0.19276329  0.93532034  0.49283712    -0.38200
N1604       N  0.12566780  0.93986112  0.46339533    -0.39800
C1605       C  0.32805446  0.97865891  0.46258178    -0.04800
C1606       C  0.34568688  0.00275925  0.46002477     0.09400
C1607       C  0.34094907  0.52741145  0.46933330    -0.02200
C1608       C  0.31925084  0.52812274  0.48113870    -0.00400
C1609       C  0.30060004  0.00637639  0.48267295    -0.04000
C1610       C  0.30563404  0.98042658  0.47381717     0.03000
C1611       C  0.36518211  0.50328115  0.44564338     0.09800
C1612       C  0.35985204  0.55184706  0.46744257     0.35700
C1613       C  0.28659399  0.95602015  0.47563225     0.39100
C1614       C  0.35848818  0.01348489  0.43197280    -0.04400
C1615       C  0.37796781  0.51878209  0.41903435     0.02800
C1616       C  0.40363013  0.50047895  0.41937699    -0.04000
C1617       C  0.40955372  0.48355737  0.43307203    -0.00200
C1618       C  0.39135015  0.48627194  0.44634955    -0.02800
C1619       C  0.32917462  0.02585294  0.42992840     0.36500
C1620       C  0.43345884  0.46199839  0.43345272     0.40100
C1621       C  0.37237368  0.53856122  0.40597842     0.39200
C1622       C  0.39972790  0.47184294  0.46091496     0.36100
C1623       C  0.33243279  0.95229733  0.45327131     0.36800
C1624       C  0.31420597  0.55461196  0.49021488     0.40100
N1625       N  0.36064742  0.03593423  0.39281876    -0.38000
N1626       N  0.30576975  0.03564086  0.42835839    -0.39600
N1627       N  0.45190688  0.44409512  0.43416731    -0.37300
N1628       N  0.40651976  0.46073535  0.47261581    -0.39700
N1629       N  0.37513018  0.57118508  0.46589739    -0.39500
N1630       N  0.31043701  0.57612374  0.49721180    -0.37100
N1631       N  0.27124485  0.93671703  0.47709406    -0.38200
N1632       N  0.33587622  0.93122021  0.44587422    -0.39800
C1633       C  0.14887147  0.51999921  0.53163403    -0.04800
C1634       C  0.15145736  0.99352602  0.54250168     0.09400
C1635       C  0.17305717  0.97128627  0.53978649    -0.02200
C1636       C  0.19403113  0.97473386  0.52792801    -0.00400
C1637       C  0.19431817  0.00096929  0.51894646    -0.04000
C1638       C  0.17183168  0.52245842  0.52070520     0.03000
C1639       C  0.13122171  0.99147924  0.55628338     0.09800
C1640       C  0.17466244  0.94549585  0.54978004     0.35700
C1641       C  0.17465838  0.54984086  0.51232188     0.39100
C1642       C  0.10754192  0.97284061  0.55591881    -0.04400
C1643       C  0.08859569  0.97119978  0.56893081     0.02800
C1644       C  0.09232198  0.98926059  0.58223127    -0.04000
C1645       C  0.11300418  0.51077384  0.58190314    -0.00200
C1646       C  0.13206770  0.51183757  0.56893054    -0.02800
C1647       C  0.10236817  0.95583059  0.54195037     0.36500
C1648       C  0.11812683  0.52921577  0.59532354     0.40100
C1649       C  0.06575212  0.95027371  0.56866499     0.39200
C1650       C  0.15718045  0.52999782  0.56955756     0.36100
C1651       C  0.12638208  0.54309711  0.53274984     0.36800
C1652       C  0.21633137  0.95172737  0.52548512     0.40100
N1653       N  0.04785121  0.93322110  0.56824758    -0.38000
N1654       N  0.09831120  0.94244350  0.53073649    -0.39600
N1655       N  0.12244941  0.54409532  0.60594064    -0.37300
N1656       N  0.17722491  0.54447248  0.56999068    -0.39700
N1657       N  0.17606342  0.92497732  0.55779197    -0.39500
N1658       N  0.23418901  0.93350430  0.52348943    -0.37100
N1659       N  0.17666368  0.57222663  0.50608533    -0.38200
N1660       N  0.10844683  0.56155605  0.53358945    -0.39800
C1661       C  0.35922655  0.99762888  0.56876834    -0.04800
C1662       C  0.36506927  0.50931352  0.55653258     0.09400
C1663       C  0.38805253  0.52882118  0.55705170    -0.02200
C1664       C  0.40667284  0.52907044  0.57014597    -0.00400
C1665       C  0.40324008  0.50899859  0.58261791    -0.04000
C1666       C  0.37805612  0.99811013  0.58177743     0.03000
C1667       C  0.34516275  0.01303482  0.54142790     0.09800
C1668       C  0.39254791  0.54862764  0.54403124     0.35700
C1669       C  0.37033337  0.98227625  0.59581380     0.39100
C1670       C  0.32623472  0.03776876  0.53912601    -0.04400
C1671       C  0.30416224  0.03717478  0.52774540     0.02800
C1672       C  0.30052575  0.01164670  0.51867649    -0.04000
C1673       C  0.31962443  0.98693417  0.52095729    -0.00200
C1674       C  0.34232082  0.98793659  0.53201114    -0.02800
C1675       C  0.32413899  0.55841948  0.55259296     0.36500
C1676       C  0.31433243  0.95944143  0.51322587     0.40100
C1677       C  0.28398674  0.06229410  0.52603161     0.39200
C1678       C  0.36193056  0.96256494  0.53427976     0.36100
C1679       C  0.33269988  0.98153593  0.56962391     0.36800
C1680       C  0.42857268  0.55094467  0.57102069     0.40100
N1681       N  0.26777658  0.08221572  0.52466604    -0.38000
N1682       N  0.32474478  0.57778651  0.56129421    -0.39600
N1683       N  0.31040185  0.93696396  0.50752931    -0.37300
N1684       N  0.37746976  0.94225668  0.53611657    -0.39700
N1685       N  0.39595883  0.56441582  0.53362392    -0.39500
N1686       N  0.44565784  0.56880112  0.57162997    -0.37100
N1687       N  0.36355004  0.96959786  0.60688950    -0.38200
N1688       N  0.31165494  0.96853931  0.57018433    -0.39800
C1689       C  0.03403343  0.67042775  0.53860659    -0.04800
C1690       C  0.50663354  0.65042929  0.54091245     0.09400
C1691       C  0.48149604  0.65236738  0.53153614    -0.02200
C1692       C  0.47805744  0.67485879  0.52027103    -0.00400
C1693       C  0.00815243  0.69414194  0.51665087    -0.04000
C1694       C  0.03291749  0.69130192  0.52646080     0.03000
C1695       C  0.50780651  0.63019422  0.55461185     0.09800
C1696       C  0.45826826  0.63242317  0.53433405     0.35700
C1697       C  0.05648327  0.71129670  0.52471523     0.39100
C1698       C  0.99844947  0.64274779  0.56916887    -0.04400
C1699       C  0.99690297  0.62379145  0.58221509     0.02800
C1700       C  0.50743619  0.59142306  0.58062698    -0.04000
C1701       C  0.51847651  0.58174118  0.56583335    -0.00200
C1702       C  0.51848037  0.60110554  0.55293519    -0.02800
C1703       C  0.98772409  0.67307170  0.57032016     0.36500
C1704       C  0.53018382  0.55204010  0.56358221     0.40100
C1705       C  0.98336352  0.63503775  0.59642255     0.39200
C1706       C  0.52927997  0.59119125  0.53779501     0.36100
C1707       C  0.05876706  0.66860155  0.54911032     0.36800
C1708       C  0.45034961  0.67899345  0.51240790     0.40100
N1709       N  0.97250850  0.64477014  0.60757550    -0.38000
N1710       N  0.97930023  0.69727913  0.57122834    -0.39600
N1711       N  0.53947181  0.52848221  0.56128455    -0.37300
N1712       N  0.53780922  0.58350829  0.52567796    -0.39700
N1713       N  0.43975183  0.61657119  0.53667618    -0.39500
N1714       N  0.42772639  0.68179689  0.50660385    -0.37100
N1715       N  0.07514060  0.72735456  0.52329450    -0.38200
N1716       N  0.07847410  0.66719159  0.55750282    -0.39800
C1717       C  0.01964962  0.83841428  0.53503241    -0.04800
C1718       C  0.49066103  0.84599974  0.54371287     0.09400
C1719       C  0.46683490  0.82760321  0.54246800    -0.02200
C1720       C  0.46606394  0.80645411  0.53049460    -0.00400
C1721       C  0.99650144  0.80119024  0.51923724    -0.04000
C1722       C  0.02070288  0.81821820  0.52253367     0.03000
C1723       C  0.49179871  0.86776248  0.55687153     0.09800
C1724       C  0.44348639  0.82971313  0.55388630     0.35700
C1725       C  0.04769208  0.81341691  0.51403243     0.39100
C1726       C  0.97738369  0.88941349  0.55681054    -0.04400
C1727       C  0.97679051  0.90949822  0.56934196     0.02800
C1728       C  0.49199708  0.90777686  0.58234442    -0.04000
C1729       C  0.51208716  0.88343689  0.58190292    -0.00200
C1730       C  0.51170463  0.86331624  0.56933270    -0.02800
C1731       C  0.96131142  0.89634111  0.54257363     0.36500
C1732       C  0.53384209  0.87956716  0.59407308     0.40100
C1733       C  0.95980808  0.93678006  0.56759994     0.39200
C1734       C  0.53168534  0.83786433  0.56925067     0.36100
C1735       C  0.04494307  0.85514603  0.53857806     0.36800
C1736       C  0.44151082  0.78751821  0.52957280     0.40100
N1737       N  0.94633702  0.95847246  0.56573213    -0.38000
N1738       N  0.94839266  0.90160920  0.53123673    -0.39600
N1739       N  0.55132161  0.87646838  0.60371953    -0.37300
N1740       N  0.54764733  0.81758203  0.56908601    -0.39700
N1741       N  0.42483403  0.83145191  0.56296581    -0.39500
N1742       N  0.42200445  0.77235497  0.52887788    -0.37100
N1743       N  0.06975531  0.81006134  0.50767028    -0.38200
N1744       N  0.06528511  0.86820090  0.54144820    -0.39800
C1745       C  0.11734367  0.72367592  0.20927323    -0.04800
C1746       C  0.09583576  0.74673220  0.20959599     0.09400
C1747       C  0.09883553  0.77115089  0.19954326    -0.02200
C1748       C  0.12184322  0.77152779  0.18862297    -0.00400
C1749       C  0.14381009  0.74891518  0.18862193    -0.04000
C1750       C  0.14187030  0.72545695  0.19936715     0.03000
C1751       C  0.06915017  0.74470464  0.21978697     0.09800
C1752       C  0.07795605  0.79583435  0.20018288     0.35700
C1753       C  0.16454785  0.70253714  0.19989930     0.39100
C1754       C  0.07113809  0.74538261  0.23615123    -0.04400
C1755       C  0.04588357  0.74419584  0.24562701     0.02800
C1756       C  0.01696195  0.74611837  0.23893369    -0.04000
C1757       C  0.01592951  0.74431144  0.22202727    -0.00200
C1758       C  0.04172802  0.74241689  0.21290295    -0.02800
C1759       C  0.09936743  0.74911481  0.24329345     0.36500
C1760       C  0.98947668  0.74231564  0.21310187     0.40100
C1761       C  0.05067569  0.74385795  0.26240926     0.39200
C1762       C  0.04026034  0.73740852  0.19609863     0.36100
C1763       C  0.11349188  0.69741044  0.21854427     0.36800
C1764       C  0.12250593  0.79510801  0.17719440     0.40100
N1765       N  0.05624007  0.74360049  0.27560749    -0.38000
N1766       N  0.12182739  0.75232660  0.24894984    -0.39600
N1767       N  0.46915056  0.73953760  0.20515763    -0.37300
N1768       N  0.03913949  0.73325487  0.18276693    -0.39700
N1769       N  0.06151896  0.81572034  0.20048497    -0.39500
N1770       N  0.12264290  0.81390640  0.16806644    -0.37100
N1771       N  0.18266070  0.68426039  0.20062722    -0.38200
N1772       N  0.11025044  0.67638393  0.22585617    -0.39800
C1773       C  0.35445265  0.76756910  0.21428644    -0.04800
C1774       C  0.38028347  0.75031814  0.21193205     0.09400
C1775       C  0.38232699  0.73140277  0.19888511    -0.02200
C1776       C  0.35962082  0.73106060  0.18782403    -0.00400
C1777       C  0.33469103  0.75004681  0.18945722    -0.04000
C1778       C  0.33160827  0.76716818  0.20323142     0.03000
C1779       C  0.40541909  0.75174588  0.22316083     0.09800
C1780       C  0.40769043  0.71181806  0.19686778     0.35700
C1781       C  0.30482832  0.78401984  0.20629530     0.39100
C1782       C  0.41198930  0.72844443  0.23342536    -0.04400
C1783       C  0.43727302  0.72818109  0.24292697     0.02800
C1784       C  0.45854408  0.75076029  0.24144941    -0.04000
C1785       C  0.44894464  0.77597334  0.23217610    -0.00200
C1786       C  0.42294999  0.77613407  0.22325058    -0.02800
C1787       C  0.39164335  0.70489604  0.23457670     0.36500
C1788       C  0.46601876  0.80173674  0.23034575     0.40100
C1789       C  0.43781617  0.70594375  0.25510333     0.39200
C1790       C  0.41474979  0.80120053  0.21339558     0.36100
C1791       C  0.35141235  0.78580411  0.22811683     0.36800
C1792       C  0.36108800  0.70930438  0.17547270     0.40100
N1793       N  0.43618049  0.68809247  0.26469381    -0.38000
N1794       N  0.37543136  0.68622836  0.23551920    -0.39600
N1795       N  0.47738137  0.82346521  0.22791756    -0.37300
N1796       N  0.40805969  0.82116741  0.20561629    -0.39700
N1797       N  0.42754787  0.69575070  0.19515941    -0.39500
N1798       N  0.36254964  0.69127753  0.16597476    -0.37100
N1799       N  0.28330693  0.79700109  0.20902902    -0.38200
N1800       N  0.34902441  0.80051380  0.23909206    -0.39800
C1801       C  0.28648500  0.59033958  0.03449570    -0.04800
C1802       C  0.26117832  0.59991247  0.04261249     0.09400
C1803       C  0.23443964  0.58746484  0.03917300    -0.02200
C1804       C  0.23341531  0.56378715  0.02871088    -0.00400
C1805       C  0.25858593  0.55432099  0.02028154    -0.04000
C1806       C  0.28516329  0.56783832  0.02320294     0.03000
C1807       C  0.26291742  0.62049329  0.05613550     0.09800
C1808       C  0.20805611  0.59851934  0.04683026     0.35700
C1809       C  0.31174607  0.55679468  0.01584287     0.39100
C1810       C  0.26460477  0.65085287  0.05369187    -0.04400
C1811       C  0.26395911  0.67021154  0.06654220     0.02800
C1812       C  0.25906535  0.65952600  0.08203275    -0.04000
C1813       C  0.25816573  0.62862830  0.08431894    -0.00200
C1814       C  0.26132327  0.60937645  0.07149101    -0.02800
C1815       C  0.26650865  0.66225252  0.03786092     0.36500
C1816       C  0.25277615  0.61607604  0.09961909     0.40100
C1817       C  0.26868366  0.70102200  0.06348161     0.39200
C1818       C  0.26284249  0.57782926  0.07402283     0.36100
C1819       C  0.31409014  0.60267836  0.03840555     0.36800
C1820       C  0.20697649  0.54762178  0.02770647     0.40100
N1821       N  0.27246383  0.72548726  0.06082388    -0.38000
N1822       N  0.26796867  0.67149721  0.02527240    -0.39600
N1823       N  0.24835653  0.60569578  0.11172096    -0.37300
N1824       N  0.26440230  0.55268112  0.07597198    -0.39700
N1825       N  0.18701241  0.60750115  0.05285580    -0.39500
N1826       N  0.18603102  0.53447326  0.02714132    -0.37100
N1827       N  0.33341758  0.54820207  0.01033970    -0.38200
N1828       N  0.33600608  0.61261513  0.04164444    -0.39800
C1829       C  0.21694496  0.85278663  0.05287516    -0.04800
C1830       C  0.22372872  0.88230859  0.05488896     0.09400
C1831       C  0.22601707  0.89368218  0.07012664    -0.02200
C1832       C  0.22543927  0.87488540  0.08327080    -0.00400
C1833       C  0.22096421  0.84439919  0.08135981    -0.04000
C1834       C  0.21437593  0.83418225  0.06603054     0.03000
C1835       C  0.23049780  0.90139677  0.04114916     0.09800
C1836       C  0.22959732  0.92494202  0.07219937     0.35700
C1837       C  0.20475675  0.80465510  0.06350863     0.39100
C1838       C  0.20801762  0.91511479  0.03224550    -0.04400
C1839       C  0.21437604  0.93737622  0.02136712     0.02800
C1840       C  0.24338777  0.94559810  0.01906959    -0.04000
C1841       C  0.26585316  0.93151714  0.02795277    -0.00200
C1842       C  0.25953851  0.90876275  0.03845752    -0.02800
C1843       C  0.17820068  0.90719693  0.03481292     0.36500
C1844       C  0.29510827  0.94212531  0.02739030     0.40100
C1845       C  0.19066656  0.95419799  0.01407199     0.39200
C1846       C  0.28285003  0.89351636  0.04701203     0.36100
C1847       C  0.21342565  0.84140437  0.03718050     0.36800
C1848       C  0.23052843  0.88737096  0.09855288     0.40100
N1849       N  0.17140429  0.96783398  0.00869826    -0.38000
N1850       N  0.15445255  0.90067152  0.03680445    -0.39600
N1851       N  0.31842643  0.95067385  0.02712565    -0.37300
N1852       N  0.30132067  0.88119035  0.05383342    -0.39700
N1853       N  0.23224770  0.94989199  0.07378587    -0.39500
N1854       N  0.23453733  0.89787375  0.11062545    -0.37100
N1855       N  0.19690978  0.78128870  0.06114380    -0.38200
N1856       N  0.21064975  0.83246350  0.02463598    -0.39800
C1857       C  0.28630654  0.57802399  0.96223617    -0.04800
C1858       C  0.26213894  0.59762379  0.96009355     0.09400
C1859       C  0.23833582  0.59664388  0.97045116    -0.02200
C1860       C  0.23755489  0.57456936  0.98203574    -0.00400
C1861       C  0.26165216  0.55466898  0.98418472    -0.04000
C1862       C  0.28632193  0.55704437  0.97440499     0.03000
C1863       C  0.26047659  0.61751267  0.94609914     0.09800
C1864       C  0.21387146  0.61749209  0.96858134     0.35700
C1865       C  0.31096130  0.53640298  0.97608885     0.39100
C1866       C  0.24190799  0.61111890  0.93352319    -0.04400
C1867       C  0.23881434  0.63065391  0.92072779     0.02800
C1868       C  0.25545616  0.65602849  0.92001604    -0.04000
C1869       C  0.27559773  0.66111168  0.93211105    -0.00200
C1870       C  0.27741598  0.64250591  0.94530910    -0.02800
C1871       C  0.22618831  0.58416603  0.93373159     0.36500
C1872       C  0.29598344  0.68427176  0.93056218     0.40100
C1873       C  0.21783899  0.62488189  0.90860718     0.39200
C1874       C  0.29683813  0.64903651  0.95807410     0.36100
C1875       C  0.31038470  0.57823349  0.95127876     0.36800
C1876       C  0.21048331  0.57047784  0.99022693     0.40100
N1877       N  0.20089440  0.61993734  0.89909175    -0.38000
N1878       N  0.21386499  0.56254707  0.93394643    -0.39600
N1879       N  0.31300929  0.70207420  0.92938121    -0.37300
N1880       N  0.31240367  0.65426562  0.96821655    -0.39700
N1881       N  0.19439113  0.63410354  0.96703458    -0.39500
N1882       N  0.18461215  0.06468989  0.99725841    -0.37100
N1883       N  0.33058650  0.51987661  0.97732738    -0.38200
N1884       N  0.32949067  0.57836551  0.94247348    -0.39800
C1885       C  0.21236211  0.92683894  0.96198250    -0.04800
C1886       C  0.23283133  0.90327713  0.96012167     0.09400
C1887       C  0.25666004  0.90052070  0.97042627    -0.02200
C1888       C  0.26167443  0.92269664  0.98151803    -0.00400
C1889       C  0.24184157  0.94715933  0.98305009    -0.04000
C1890       C  0.21674101  0.94859478  0.97339667     0.03000
C1891       C  0.23173039  0.88352251  0.94611116     0.09800
C1892       C  0.27679170  0.87527259  0.96903299     0.35700
C1893       C  0.19610571  0.97341760  0.97457101     0.39100
C1894       C  0.25060575  0.88811141  0.93337670    -0.04400
C1895       C  0.25230718  0.86803388  0.92084188     0.02800
C1896       C  0.23362873  0.84419448  0.92032827    -0.04000
C1897       C  0.21375055  0.84041187  0.93280586    -0.00200
C1898       C  0.21336177  0.85954815  0.94580807    -0.02800
C1899       C  0.26868030  0.91344763  0.93332559     0.36500
C1900       C  0.19322744  0.81718009  0.93222964     0.40100
C1901       C  0.27487949  0.87079971  0.90914752     0.39200
C1902       C  0.19454331  0.85420876  0.95904654     0.36100
C1903       C  0.18736652  0.92930380  0.95169452     0.36800
C1904       C  0.28890669  0.92137585  0.98994349     0.40100
N1905       N  0.29331896  0.87293021  0.90005596    -0.38000
N1906       N  0.28293697  0.93376847  0.93331801    -0.39600
N1907       N  0.17655095  0.79890645  0.93187486    -0.37300
N1908       N  0.17962527  0.84980823  0.96963296    -0.39700
N1909       N  0.29263931  0.85503128  0.96782079    -0.39500
N1910       N  0.31134994  0.91918558  0.99598694    -0.37100
N1911       N  0.17984223  0.99339139  0.97542868    -0.38200
N1912       N  0.16737049  0.93123125  0.94351576    -0.39800
C1913       C  0.51987564  0.64594898  0.69744943    -0.04800
C1914       C  0.50067945  0.64578360  0.71034172     0.09400
C1915       C  0.48256913  0.62180923  0.71241632    -0.02200
C1916       C  0.48188378  0.59944950  0.70103250    -0.00400
C1917       C  0.50089693  0.59970974  0.68798014    -0.04000
C1918       C  0.52068382  0.62257113  0.68664937     0.03000
C1919       C  0.49857503  0.67145594  0.72138125     0.09800
C1920       C  0.46443831  0.62033685  0.72628058     0.35700
C1921       C  0.54292096  0.62150325  0.67460491     0.39100
C1922       C  0.47376706  0.69026830  0.72136673    -0.04400
C1923       C  0.47185383  0.71527377  0.73119858     0.02800
C1924       C  0.49555538  0.72289346  0.74136616    -0.04000
C1925       C  0.01788309  0.70055987  0.74325370    -0.00200
C1926       C  0.01920434  0.67637012  0.73279828    -0.02800
C1927       C  0.45046993  0.68453892  0.71041654     0.36500
C1928       C  0.03976086  0.69921300  0.75537752     0.40100
C1929       C  0.44569048  0.73361648  0.72923109     0.39200
C1930       C  0.04424113  0.65580183  0.73292149     0.36100
C1931       C  0.53875453  0.67030588  0.69516705     0.36800
C1932       C  0.46052696  0.57709661  0.70249249     0.40100
N1933       N  0.42384374  0.74592263  0.72638842    -0.38000
N1934       N  0.43199540  0.67987341  0.70171806    -0.39600
N1935       N  0.05698421  0.69616109  0.76514438    -0.37300
N1936       N  0.06428342  0.63962926  0.73296992    -0.39700
N1937       N  0.45008078  0.61922955  0.73737359    -0.39500
N1938       N  0.44317415  0.55960307  0.70380050    -0.37100
N1939       N  0.56106260  0.62069055  0.66521862    -0.38200
N1940       N  0.05358868  0.68888382  0.69544722    -0.39800
C1941       C  0.01469002  0.87589574  0.70998013    -0.04800
C1942       C  0.48982104  0.86272162  0.71153446     0.09400
C1943       C  0.46485525  0.87001552  0.70248462    -0.02200
C1944       C  0.46535167  0.89287332  0.69129057    -0.00400
C1945       C  0.49050778  0.90925255  0.68936876    -0.04000
C1946       C  0.01504745  0.89938280  0.69919381     0.03000
C1947       C  0.49112674  0.83527487  0.72145784     0.09800
C1948       C  0.43879303  0.85360559  0.70448697     0.35700
C1949       C  0.04177192  0.91425163  0.69636116     0.39100
C1950       C  0.99176135  0.83609829  0.73949562    -0.04400
C1951       C  0.99281929  0.81012358  0.74874199     0.02800
C1952       C  0.49377068  0.78182806  0.74017070    -0.04000
C1953       C  0.49652894  0.78152614  0.72323808    -0.00200
C1954       C  0.49426123  0.80777384  0.71426841    -0.02800
C1955       C  0.99212648  0.86480203  0.74684411     0.36500
C1956       C  0.50514637  0.75577043  0.71422528     0.40100
C1957       C  0.99184566  0.81451444  0.76552624     0.39200
C1958       C  0.49627606  0.80673350  0.69725808     0.36100
C1959       C  0.04165039  0.86482366  0.71698974     0.36800
C1960       C  0.43992088  0.89962045  0.68172605     0.40100
N1961       N  0.99054699  0.82050001  0.77866053    -0.38000
N1962       N  0.99240351  0.88765896  0.75268666    -0.39600
N1963       N  0.51274359  0.73649620  0.70623077    -0.37300
N1964       N  0.49784980  0.80606832  0.68374871    -0.39700
N1965       N  0.41789484  0.84062438  0.70600195    -0.39500
N1966       N  0.41970434  0.90508078  0.67406231    -0.37100
N1967       N  0.06303932  0.92629000  0.69420679    -0.38200
N1968       N  0.06318915  0.85573839  0.72244535    -0.39800
C1969       C  0.10657426  0.78211945  0.80145207    -0.04800
C1970       C  0.10223348  0.75829946  0.79128338     0.09400
C1971       C  0.12340527  0.73490328  0.79082954    -0.02200
C1972       C  0.14762428  0.73461056  0.80103866    -0.00400
C1973       C  0.15026758  0.75697725  0.81228911    -0.04000
C1974       C  0.12996007  0.78111094  0.81217699     0.03000
C1975       C  0.07470549  0.75755806  0.78166515     0.09800
C1976       C  0.12030251  0.71077869  0.78005136     0.35700
C1977       C  0.13350447  0.80527554  0.82291728     0.39100
C1978       C  0.07485575  0.76346601  0.76557329    -0.04400
C1979       C  0.04914885  0.76136545  0.75649109     0.02800
C1980       C  0.02117111  0.75608560  0.76358915    -0.04000
C1981       C  0.02152126  0.75530540  0.78054040    -0.00200
C1982       C  0.04803221  0.75268979  0.78897319    -0.02800
C1983       C  0.10202777  0.77116938  0.75825423     0.36500
C1984       C  0.99608623  0.76094900  0.79022908     0.40100
C1985       C  0.05326344  0.76309374  0.73972025     0.39200
C1986       C  0.04789856  0.74509666  0.80551004     0.36100
C1987       C  0.08713419  0.80792353  0.80065916     0.36800
C1988       C  0.16943556  0.71082605  0.80016918     0.40100
N1989       N  0.05913558  0.76475577  0.72658838    -0.38000
N1990       N  0.12364998  0.77741098  0.75245264    -0.39600
N1991       N  0.47531859  0.76906226  0.79670115    -0.37300
N1992       N  0.04791746  0.73871609  0.81862487    -0.39700
N1993       N  0.11868298  0.69123343  0.77153596    -0.39500
N1994       N  0.18683753  0.69188191  0.79922688    -0.37100
N1995       N  0.13644777  0.82456872  0.83146149    -0.38200
N1996       N  0.07178727  0.82861761  0.79984438    -0.39800
C1997       C  0.38562722  0.76997758  0.80344019    -0.04800
C1998       C  0.38853775  0.74660471  0.79263458     0.09400
C1999       C  0.36852024  0.72391842  0.79317513    -0.02200
C2000       C  0.34677923  0.72392700  0.80486078    -0.00400
C2001       C  0.34275953  0.74814221  0.81501293    -0.04000
C2002       C  0.36255439  0.77104569  0.81433495     0.03000
C2003       C  0.41291039  0.74607386  0.78082735     0.09800
C2004       C  0.37001210  0.70078752  0.78155836     0.35700
C2005       C  0.35944477  0.79579127  0.82491307     0.39100
C2006       C  0.43572841  0.72485847  0.78166873    -0.04400
C2007       C  0.45977559  0.72577954  0.77130547     0.02800
C2008       C  0.46368368  0.75050270  0.76091595    -0.04000
C2009       C  0.43828217  0.77033599  0.75940501    -0.00200
C2010       C  0.41347706  0.76750618  0.76909222    -0.02800
C2011       C  0.43546961  0.70298732  0.79411121     0.36500
C2012       C  0.43456306  0.79235319  0.74722882     0.40100
C2013       C  0.48120416  0.70183894  0.77305377     0.39200
C2014       C  0.38763677  0.78658396  0.76687466     0.36100
C2015       C  0.40629451  0.79319139  0.80328637     0.36800
C2016       C  0.33086442  0.69764123  0.80758403     0.40100
N2017       N  0.49633334  0.68153444  0.77569092    -0.38000
N2018       N  0.43546584  0.68569139  0.80405229    -0.39600
N2019       N  0.42960659  0.80981357  0.73763138    -0.37300
N2020       N  0.36697473  0.80156287  0.76516654    -0.39700
N2021       N  0.37112495  0.68248880  0.77219574    -0.39500
N2022       N  0.31909415  0.67621028  0.81015711    -0.37100
N2023       N  0.35739948  0.81563191  0.83330488    -0.38200
N2024       N  0.42255582  0.81188610  0.80310407    -0.39800
C2025       C  0.31963389  0.52401806  0.73050834    -0.04800
C2026       C  0.32458938  0.50285023  0.71890674     0.09400
C2027       C  0.30389957  0.98539293  0.71598516    -0.02200
C2028       C  0.27923505  0.98431079  0.72595955    -0.00400
C2029       C  0.27222805  0.50322862  0.73782161    -0.04000
C2030       C  0.29266126  0.52649728  0.73835218     0.03000
C2031       C  0.35087111  0.50470250  0.70848964     0.09800
C2032       C  0.30770914  0.96492934  0.70307465     0.35700
C2033       C  0.28529717  0.55579025  0.74396717     0.39100
C2034       C  0.37692791  0.99097000  0.71047918    -0.04400
C2035       C  0.40113776  0.99350542  0.70042515     0.02800
C2036       C  0.40065502  0.51002993  0.68898682    -0.04000
C2037       C  0.37568930  0.52890038  0.68692362    -0.00200
C2038       C  0.35082201  0.52582935  0.69638224    -0.02800
C2039       C  0.37881772  0.97079796  0.72360304     0.36500
C2040       C  0.37619659  0.55291722  0.67576618     0.40100
C2041       C  0.42735813  0.97577821  0.70356306     0.39200
C2042       C  0.32510765  0.54472482  0.69379730     0.36100
C2043       C  0.34221141  0.54446479  0.73390089     0.36800
C2044       C  0.26018339  0.96035601  0.72317857     0.40100
N2045       N  0.44821548  0.96173947  0.70635856    -0.38000
N2046       N  0.38112879  0.95440688  0.73392882    -0.39600
N2047       N  0.37658859  0.57251024  0.66713899    -0.37300
N2048       N  0.30455857  0.55976111  0.69184822    -0.39700
N2049       N  0.31080747  0.94874348  0.69274656    -0.39500
N2050       N  0.24645723  0.94050737  0.72004523    -0.37100
N2051       N  0.28010382  0.57980583  0.74769502    -0.38200
N2052       N  0.36029030  0.56055186  0.73667718    -0.39800
C2053       C  0.18586522  0.52011670  0.71676336    -0.04800
C2054       C  0.16471383  0.49949446  0.71956569     0.09400
C2055       C  0.17219882  0.98042974  0.73113897    -0.02200
C2056       C  0.19870336  0.97774741  0.73943381    -0.00400
C2057       C  0.21944263  0.00077740  0.73909104    -0.04000
C2058       C  0.21138629  0.52042988  0.72605406     0.03000
C2059       C  0.13882954  0.49784114  0.70900777     0.09800
C2060       C  0.14963835  0.95948876  0.73375786     0.35700
C2061       C  0.23034317  0.54431873  0.72291581     0.39100
C2062       C  0.13873245  0.47615726  0.69726244    -0.04400
C2063       C  0.11449416  0.47397135  0.68735452     0.02800
C2064       C  0.09081127  0.49473113  0.68837660    -0.04000
C2065       C  0.09463962  0.01977434  0.69969488    -0.00200
C2066       C  0.11840235  0.02114332  0.71010921    -0.02800
C2067       C  0.16398490  0.45641091  0.69518661     0.36500
C2068       C  0.07203969  0.04282383  0.70007467     0.40100
C2069       C  0.11355240  0.44952536  0.67655282     0.39200
C2070       C  0.11828818  0.04369736  0.72203450     0.36100
C2071       C  0.18080552  0.54171772  0.70440228     0.36800
C2072       C  0.20518014  0.94863518  0.74557811     0.40100
N2073       N  0.11269824  0.42961594  0.66822207    -0.38000
N2074       N  0.18426237  0.44086968  0.69355070    -0.39600
N2075       N  0.05449517  0.06169074  0.70054246    -0.37300
N2076       N  0.11761669  0.06190724  0.73144570    -0.39700
N2077       N  0.13170549  0.94283311  0.73580867    -0.39500
N2078       N  0.20971395  0.92470754  0.74969850    -0.37100
N2079       N  0.24366793  0.56418247  0.71923110    -0.38200
N2080       N  0.17663782  0.55894330  0.69460043    -0.39800
C2081       C  0.25455260  0.63267939  0.78772581    -0.04800
C2082       C  0.24228604  0.60583923  0.79174797     0.09400
C2083       C  0.22785981  0.60325071  0.80615333    -0.02200
C2084       C  0.22728671  0.62657563  0.81696080    -0.00400
C2085       C  0.24103412  0.65324524  0.81346035    -0.04000
C2086       C  0.25284580  0.65667757  0.79821045     0.03000
C2087       C  0.24321690  0.58024641  0.78070974     0.09800
C2088       C  0.21329036  0.57634771  0.80977260     0.35700
C2089       C  0.26253312  0.68490661  0.79289834     0.39100
C2090       C  0.26497571  0.55805903  0.78218293    -0.04400
C2091       C  0.26482321  0.53260340  0.77270787     0.02800
C2092       C  0.24242881  0.52853115  0.76113837    -0.04000
C2093       C  0.21863468  0.55038087  0.76138710    -0.00200
C2094       C  0.22007013  0.57629038  0.77044499    -0.02800
C2095       C  0.28809097  0.56185241  0.79347884     0.36500
C2096       C  0.19040502  0.54594424  0.75458607     0.40100
C2097       C  0.28944755  0.51207753  0.77464227     0.39200
C2098       C  0.19655113  0.59863553  0.76995383     0.36100
C2099       C  0.26940659  0.63561418  0.77288387     0.36800
C2100       C  0.21063987  0.62313274  0.83118157     0.40100
N2101       N  0.30990786  0.49717805  0.77705971    -0.38000
N2102       N  0.30646285  0.56493586  0.80247495    -0.39600
N2103       N  0.16702394  0.54334863  0.75000989    -0.37300
N2104       N  0.17781440  0.61634580  0.76967803    -0.39700
N2105       N  0.20159957  0.55493671  0.81253201    -0.39500
N2106       N  0.19666672  0.61900453  0.84215439    -0.37100
N2107       N  0.26994274  0.70739777  0.78841840    -0.38200
N2108       N  0.28165445  0.63857440  0.76119417    -0.39800
C2109       C  0.27128688  0.92458874  0.77000316    -0.04800
C2110       C  0.24991046  0.92152013  0.78149260     0.09400
C2111       C  0.22953226  0.94469235  0.78396861    -0.02200
C2112       C  0.22881259  0.96992523  0.77417994    -0.00400
C2113       C  0.24994886  0.97366254  0.76179611    -0.04000
C2114       C  0.27279682  0.95085917  0.76111045     0.03000
C2115       C  0.25040700  0.89489786  0.79201856     0.09800
C2116       C  0.20868529  0.94219230  0.79665967     0.35700
C2117       C  0.30018143  0.95416360  0.75317012     0.39100
C2118       C  0.27065597  0.89248904  0.80439109    -0.04400
C2119       C  0.27008712  0.86868746  0.81498682     0.02800
C2120       C  0.24904097  0.84708789  0.81344789    -0.04000
C2121       C  0.22964746  0.84878796  0.80065595    -0.00200
C2122       C  0.23035779  0.87252757  0.78998598    -0.02800
C2123       C  0.29204487  0.91472729  0.80627558     0.36500
C2124       C  0.20816333  0.82668924  0.79872549     0.40100
C2125       C  0.29174145  0.86621280  0.82726659     0.39200
C2126       C  0.21020252  0.87374053  0.77698966     0.36100
C2127       C  0.29263960  0.90054954  0.76771656     0.36800
C2128       C  0.20450775  0.99054549  0.77679503     0.40100
N2129       N  0.30930666  0.86457120  0.83692592    -0.38000
N2130       N  0.30920399  0.93237752  0.80768901    -0.39600
N2131       N  0.19100456  0.80913105  0.79705085    -0.37300
N2132       N  0.19372346  0.87368350  0.76678799    -0.39700
N2133       N  0.19214421  0.94016836  0.80677241    -0.39500
N2134       N  0.18434987  0.00539697  0.77989924    -0.37100
N2135       N  0.32295020  0.95553702  0.74755406    -0.38200
N2136       N  0.30960091  0.88139587  0.76596291    -0.39800
C2137       C  0.07135356  0.72244746  0.04024594    -0.04800
C2138       C  0.09158262  0.74473035  0.04154296     0.09400
C2139       C  0.09038981  0.76837927  0.03084196    -0.02200
C2140       C  0.06738265  0.77133460  0.01996425    -0.00400
C2141       C  0.04680920  0.74923379  0.01871047    -0.04000
C2142       C  0.04932326  0.72448189  0.02879092     0.03000
C2143       C  0.11167646  0.74517463  0.05534802     0.09800
C2144       C  0.11208966  0.79056321  0.03162868     0.35700
C2145       C  0.02773987  0.70216456  0.02828368     0.39100
C2146       C  0.13509818  0.72439355  0.05675622    -0.04400
C2147       C  0.15253280  0.72374602  0.07032255     0.02800
C2148       C  0.14800045  0.74518020  0.08212373    -0.04000
C2149       C  0.12473850  0.76617669  0.08062676    -0.00200
C2150       C  0.10635288  0.76581139  0.06745031    -0.02800
C2151       C  0.14151130  0.70391682  0.04413916     0.36500
C2152       C  0.12009649  0.78883694  0.09234343     0.40100
C2153       C  0.17422329  0.70008763  0.07245348     0.39200
C2154       C  0.08193687  0.78688038  0.06630666     0.36100
C2155       C  0.07222847  0.69818873  0.05129878     0.36800
C2156       C  0.06308083  0.79895967  0.01174992     0.40100
N2157       N  0.19106983  0.68082600  0.07419643    -0.38000
N2158       N  0.14675801  0.68763301  0.03406607    -0.39600
N2159       N  0.11608409  0.80715191  0.10153024    -0.37300
N2160       N  0.06257376  0.80378800  0.06534305    -0.39700
N2161       N  0.12937745  0.80824451  0.03228692    -0.39500
N2162       N  0.06024539  0.82182688  0.00592131    -0.37100
N2163       N  0.01032323  0.68457428  0.02807041    -0.38200
N2164       N  0.07306149  0.67886106  0.06011961    -0.39800
C2165       C  0.40916868  0.79182388  0.04086389    -0.04800
C2166       C  0.39186401  0.76711216  0.04240404     0.09400
C2167       C  0.39555805  0.74372752  0.03172183    -0.02200
C2168       C  0.41851229  0.74345607  0.02075070    -0.00400
C2169       C  0.43633524  0.76790224  0.01937334    -0.04000
C2170       C  0.43081590  0.79249953  0.02917751     0.03000
C2171       C  0.37114897  0.76474297  0.05590602     0.09800
C2172       C  0.37619161  0.71941263  0.03239881     0.35700
C2173       C  0.44851322  0.81800840  0.02777438     0.39100
C2174       C  0.34529148  0.78232190  0.05639972    -0.04400
C2175       C  0.32624338  0.78053155  0.06929173     0.02800
C2176       C  0.33237309  0.76049909  0.08171253    -0.04000
C2177       C  0.35811037  0.74247868  0.08101509    -0.00200
C2178       C  0.37751430  0.74484010  0.06827753    -0.02800
C2179       C  0.33818619  0.80219597  0.04352863     0.36500
C2180       C  0.36417264  0.72051066  0.09300177     0.40100
C2181       C  0.30079209  0.80020166  0.06984646     0.39200
C2182       C  0.40406093  0.72655986  0.06781618     0.36100
C2183       C  0.40552443  0.81607349  0.05173467     0.36800
C2184       C  0.42522455  0.71665152  0.01223007     0.40100
N2185       N  0.28077081  0.81632792  0.06999051    -0.38000
N2186       N  0.33257610  0.81809161  0.03328716    -0.39600
N2187       N  0.36919416  0.70273861  0.10241976    -0.37300
N2188       N  0.42516029  0.71189415  0.06733003    -0.39700
N2189       N  0.36067403  0.70009430  0.03291417    -0.39500
N2190       N  0.42983597  0.69437829  0.00607752    -0.37100
N2191       N  0.46268411  0.83829694  0.02662966    -0.38200
N2192       N  0.40257647  0.83542997  0.06039813    -0.39800
C2193       C  0.07529746  0.77083297  0.96179052    -0.04800
C2194       C  0.08678615  0.74260182  0.95786356     0.09400
C2195       C  0.07726725  0.71794396  0.96619323    -0.02200
C2196       C  0.05722446  0.72160175  0.97868760    -0.00400
C2197       C  0.04508653  0.74978167  0.98230168    -0.04000
C2198       C  0.05351030  0.77417754  0.97333212     0.03000
C2199       C  0.10785846  0.73900123  0.94444066     0.09800
C2200       C  0.08671845  0.68870550  0.96120070     0.35700
C2201       C  0.03791369  0.80231738  0.97498212     0.39100
C2202       C  0.13741859  0.73175930  0.94722876    -0.04400
C2203       C  0.15776703  0.73148538  0.93480563     0.02800
C2204       C  0.14884083  0.73900297  0.91923805    -0.04000
C2205       C  0.11852412  0.74418580  0.91644627    -0.00200
C2206       C  0.09835954  0.74391038  0.92894399    -0.02800
C2207       C  0.14695712  0.72464354  0.96302422     0.36500
C2208       C  0.10746023  0.75050609  0.90085734     0.40100
C2209       C  0.18786310  0.72338660  0.93840189     0.39200
C2210       C  0.06751588  0.74870537  0.92587279     0.36100
C2211       C  0.08517541  0.79645031  0.95353662     0.36800
C2212       C  0.04742938  0.69605267  0.98697967     0.40100
N2213       N  0.21178200  0.71709203  0.94150168    -0.38000
N2214       N  0.15446444  0.71861250  0.97558538    -0.39600
N2215       N  0.09825912  0.75542755  0.88848817    -0.37300
N2216       N  0.04293160  0.75245884  0.92342430    -0.39700
N2217       N  0.09413213  0.66546623  0.95701038    -0.39500
N2218       N  0.03972539  0.67544090  0.99345628    -0.37100
N2219       N  0.02508434  0.82457583  0.97615018    -0.38200
N2220       N  0.09301919  0.81689501  0.94695562    -0.39800
C2221       C  0.39951556  0.79157011  0.96820375    -0.04800
C2222       C  0.39449830  0.76545884  0.95996843     0.09400
C2223       C  0.41087504  0.73953894  0.96361368    -0.02200
C2224       C  0.43348505  0.74021066  0.97462104    -0.00400
C2225       C  0.43799587  0.76604604  0.98328996    -0.04000
C2226       C  0.42084929  0.79175188  0.98004766     0.03000
C2227       C  0.37375800  0.76577129  0.94650255     0.09800
C2228       C  0.40514808  0.71237775  0.95558295     0.35700
C2229       C  0.42686965  0.81908405  0.98777326     0.39100
C2230       C  0.38447911  0.76407439  0.93107935    -0.04400
C2231       C  0.36518977  0.76244332  0.91831811     0.02800
C2232       C  0.33448990  0.76415420  0.92078979    -0.04000
C2233       C  0.32412379  0.76851199  0.93642049    -0.00200
C2234       C  0.34362844  0.76786679  0.94913798    -0.02800
C2235       C  0.41567100  0.76375608  0.92839418     0.36500
C2236       C  0.29346821  0.77407132  0.93977450     0.40100
C2237       C  0.37766876  0.75848134  0.90282529     0.39200
C2238       C  0.33267385  0.76866895  0.96507909     0.36100
C2239       C  0.38387427  0.81861591  0.96379370     0.36800
C2240       C  0.45368824  0.71502151  0.97603789     0.40100
N2241       N  0.38805219  0.75531848  0.89057270    -0.38000
N2242       N  0.44052999  0.76350516  0.92634648    -0.39600
N2243       N  0.26910729  0.77857000  0.94260973    -0.37300
N2244       N  0.32400513  0.76912394  0.97779410    -0.39700
N2245       N  0.40059805  0.69069153  0.94920281    -0.39500
N2246       N  0.47009838  0.69518955  0.97707587    -0.37100
N2247       N  0.43143709  0.84127351  0.99362716    -0.38200
N2248       N  0.37141934  0.84010535  0.96012498    -0.39800
C2249       C  0.37409696  0.52549644  0.29203771    -0.04800
C2250       C  0.35704511  0.50059584  0.29014126     0.09400
C2251       C  0.36259145  0.97997554  0.30201689    -0.02200
C2252       C  0.38525689  0.98001821  0.31311558    -0.00400
C2253       C  0.40266270  0.50018914  0.31247661    -0.04000
C2254       C  0.39549352  0.52585943  0.30384222     0.03000
C2255       C  0.33116299  0.50163982  0.27929084     0.09800
C2256       C  0.34362799  0.95535411  0.30149110     0.35700
C2257       C  0.40793351  0.55335963  0.30821571     0.39100
C2258       C  0.33154917  0.98403362  0.26827620    -0.04400
C2259       C  0.30583135  0.98121508  0.25932315     0.02800
C2260       C  0.27839266  0.49912779  0.26083613    -0.04000
C2261       C  0.28292315  0.52209955  0.27211543    -0.00200
C2262       C  0.30754541  0.52131891  0.28205026    -0.02800
C2263       C  0.35762697  0.96601180  0.26484314     0.36500
C2264       C  0.26112894  0.54505221  0.27550682     0.40100
C2265       C  0.30822692  0.95888127  0.24730620     0.39200
C2266       C  0.30755706  0.53939998  0.29605870     0.36100
C2267       C  0.36932640  0.55096218  0.28201352     0.36800
C2268       C  0.38947804  0.95538450  0.32379412     0.40100
N2269       N  0.31217156  0.94100223  0.23785614    -0.38000
N2270       N  0.37845245  0.95188554  0.26208454    -0.39600
N2271       N  0.24538609  0.56400496  0.27950922    -0.37300
N2272       N  0.30747499  0.55345572  0.30731173    -0.39700
N2273       N  0.32871418  0.93555327  0.30100049    -0.39500
N2274       N  0.39279859  0.93587544  0.33239047    -0.37100
N2275       N  0.41729280  0.57540774  0.31201871    -0.38200
N2276       N  0.36552140  0.57127186  0.27400709    -0.39800
C2277       C  0.12581379  0.96766062  0.29418568    -0.04800
C2278       C  0.14228828  0.49341354  0.29284527     0.09400
C2279       C  0.13532927  0.51874019  0.30184585    -0.02200
C2280       C  0.11115775  0.51939756  0.31201632    -0.00400
C2281       C  0.09363249  0.49480963  0.31333531    -0.04000
C2282       C  0.10079962  0.96947381  0.30385868     0.03000
C2283       C  0.16896024  0.49231246  0.28254100     0.09800
C2284       C  0.15354661  0.54391539  0.30105387     0.35700
C2285       C  0.08160603  0.94508310  0.30459840     0.39100
C2286       C  0.16646257  0.49272923  0.26620772    -0.04400
C2287       C  0.19150586  0.49351310  0.25649884     0.02800
C2288       C  0.22049014  0.49498926  0.26294960    -0.04000
C2289       C  0.22428778  0.99014504  0.28033986    -0.00200
C2290       C  0.19877818  0.98851681  0.28962649    -0.02800
C2291       C  0.13753290  0.49366307  0.25935894     0.36500
C2292       C  0.25098991  0.98364130  0.28888300     0.40100
C2293       C  0.18581710  0.49520961  0.23984744     0.39200
C2294       C  0.20086331  0.98415707  0.30649086     0.36100
C2295       C  0.13326684  0.94064582  0.28592753     0.36800
C2296       C  0.10436626  0.54542178  0.32128420     0.40100
N2297       N  0.17860223  0.49656541  0.22689406    -0.38000
N2298       N  0.11443483  0.49427130  0.25401810    -0.39600
N2299       N  0.27120677  0.97762023  0.29646205    -0.37300
N2300       N  0.20251165  0.98058328  0.31987686    -0.39700
N2301       N  0.16809701  0.56401130  0.30070947    -0.39500
N2302       N  0.09889621  0.56607401  0.32872940    -0.37100
N2303       N  0.06625258  0.92563164  0.30505441    -0.38200
N2304       N  0.13934530  0.91905127  0.27939570    -0.39800
C2305       C  0.27148013  0.56362245  0.22320793    -0.04800
C2306       C  0.24769244  0.58375799  0.22361045     0.09400
C2307       C  0.22524693  0.57909487  0.23430308    -0.02200
C2308       C  0.22534261  0.55350865  0.24391441    -0.00400
C2309       C  0.24758350  0.53014226  0.24233421    -0.04000
C2310       C  0.27165977  0.53735265  0.23221289     0.03000
C2311       C  0.24578396  0.60927543  0.21221779     0.09800
C2312       C  0.20196348  0.60154688  0.23558931     0.35700
C2313       C  0.29572925  0.51684886  0.22887210     0.39100
C2314       C  0.22577519  0.60920686  0.19967731    -0.04400
C2315       C  0.22511705  0.63194026  0.18838897     0.02800
C2316       C  0.24476661  0.65496008  0.18927863    -0.04000
C2317       C  0.26431949  0.65543447  0.20203515    -0.00200
C2318       C  0.26445753  0.63302259  0.21356884    -0.02800
C2319       C  0.20540420  0.58590051  0.19840928     0.36500
C2320       C  0.28525250  0.67822603  0.20301194     0.40100
C2321       C  0.20314469  0.63222991  0.17622305     0.39200
C2322       C  0.28375068  0.63446526  0.22691955     0.36100
C2323       C  0.29537923  0.56918611  0.21256854     0.36800
C2324       C  0.20311379  0.55425255  0.25590649     0.40100
N2325       N  0.18530736  0.63244397  0.16669681    -0.38000
N2326       N  0.18868479  0.56774679  0.19733027    -0.39600
N2327       N  0.30221934  0.69615935  0.20390900    -0.37300
N2328       N  0.29911353  0.63566132  0.23758214    -0.39700
N2329       N  0.18347288  0.61943211  0.23652801    -0.39500
N2330       N  0.18513185  0.55698775  0.26533119    -0.37100
N2331       N  0.31564573  0.50252391  0.22480861    -0.38200
N2332       N  0.31443750  0.57364420  0.20416422    -0.39800
C2333       C  0.22072000  0.88122845  0.20757772    -0.04800
C2334       C  0.24735672  0.89516667  0.20937065     0.09400
C2335       C  0.27201572  0.88468269  0.20090494    -0.02200
C2336       C  0.26971732  0.86120963  0.19027730    -0.00400
C2337       C  0.24284928  0.84786182  0.18818188    -0.04000
C2338       C  0.21851585  0.85762355  0.19705436     0.03000
C2339       C  0.24896318  0.92145063  0.21989179     0.09800
C2340       C  0.29972396  0.89806349  0.20313136     0.35700
C2341       C  0.19099731  0.84382482  0.19509504     0.39100
C2342       C  0.24902629  0.91800199  0.23614918    -0.04400
C2343       C  0.24919362  0.94271445  0.24619770     0.02800
C2344       C  0.24937683  0.97248458  0.24017950    -0.04000
C2345       C  0.24658592  0.97489777  0.22328485    -0.00200
C2346       C  0.24809653  0.94976753  0.21352286    -0.02800
C2347       C  0.25012765  0.88835336  0.24255017     0.36500
C2348       C  0.23841480  0.00181207  0.21508302     0.40100
C2349       C  0.25170603  0.93576337  0.26269279     0.39200
C2350       C  0.24745426  0.95298745  0.19656321     0.36100
C2351       C  0.19547586  0.89148119  0.21648639     0.36800
C2352       C  0.29505611  0.85051124  0.18157039     0.40100
N2353       N  0.25407106  0.92700019  0.27536541    -0.38000
N2354       N  0.25105098  0.86472547  0.24756684    -0.39600
N2355       N  0.23123379  0.02214654  0.20770099    -0.37300
N2356       N  0.24702033  0.95568239  0.18309727    -0.39700
N2357       N  0.32190118  0.90865075  0.20486648    -0.39500
N2358       N  0.31520809  0.84175658  0.17465248    -0.37100
N2359       N  0.16896288  0.83287518  0.19362485    -0.38200
N2360       N  0.17551594  0.89967694  0.22372832    -0.39800
C2361       C  0.74917013  0.49866522  0.25170913    -0.01800
C2362       C  0.96350493  0.26181845  0.99314183     0.03000
C2363       C  0.96355000  0.26177134  0.00968630     0.02900
C2364       C  0.99031300  0.26007670  0.01757724    -0.17600
C2365       C  0.51817596  0.25688451  0.00963839     0.03000
C2366       C  0.51748377  0.25770986  0.99307026     0.02900
C2367       C  0.98998105  0.26051004  0.98510642    -0.17600
H2368       H  0.98981098  0.26070537  0.97240580     0.05000
H2369       H  0.99037125  0.25995232  0.03026995     0.05000
C2370       C  0.74618627  0.49825688  0.75053772    -0.01800
C2371       C  0.99351749  0.25212876  0.75218897    -0.01800
C2372       C  0.75636781  0.47355099  0.99320065     0.03000
C2373       C  0.75686142  0.47270127  0.00978566     0.02900
C2374       C  0.76044842  0.49884710  0.01808123    -0.17600
C2375       C  0.75962597  0.02544990  0.00997210     0.03000
C2376       C  0.75889492  0.02662705  0.99344848     0.02900
C2377       C  0.75991289  0.50051496  0.98561158    -0.17600
H2378       H  0.75968930  0.50128883  0.97292180     0.05000
H2379       H  0.76055216  0.49827464  0.03077200     0.05000
O2380       O  0.82202190  0.26248312  0.89385933    -0.74600
O2381       O  0.78622249  0.25783056  0.91175243    -0.53500
C2382       C  0.81257652  0.26290050  0.90806576     0.79100
O2383       O  0.74525502  0.33191030  0.83989497    -0.59200
O2384       O  0.74719355  0.29479994  0.82196662    -0.52200
C2385       C  0.74741612  0.32210330  0.82581344     0.71100
O2386       O  0.74037862  0.33401713  0.89272857    -0.73800
O2387       O  0.73920081  0.29762842  0.91105504    -0.54300
C2388       C  0.73950399  0.32471196  0.90698680     0.77100
O2389       O  0.82560488  0.24777156  0.84151519    -0.58900
O2390       O  0.79057574  0.24470351  0.82276640    -0.52000
C2391       C  0.81731387  0.24550218  0.82720412     0.73700
Zr2392     Zr  0.80421924  0.25083638  0.86763941     2.54700
O2393       O  0.84230094  0.28600213  0.86503633    -0.79500
O2394       O  0.84021854  0.21066441  0.87098141    -0.92900
Zr2395     Zr  0.74061874  0.31263800  0.86640136     2.64700
O2396       O  0.77393944  0.35248429  0.86832187    -0.97800
O2397       O  0.69865426  0.34675442  0.86472106    -0.79900
O2398       O  0.77239090  0.28282125  0.88193527    -0.83300
O2399       O  0.77345740  0.28142986  0.85188273    -2.18000
O2400       O  0.74508776  0.16753493  0.84210561    -0.66700
O2401       O  0.74149246  0.20283078  0.82328980    -0.51200
C2402       C  0.74249377  0.17573933  0.82769751     0.72100
O2403       O  0.66183642  0.24645858  0.89325378    -0.59600
O2404       O  0.69737242  0.25060257  0.91139727    -0.51500
C2405       C  0.67070114  0.24748783  0.90755625     0.73900
O2406       O  0.66236169  0.25510216  0.84027473    -0.71000
O2407       O  0.69896170  0.25317746  0.82214594    -0.49600
C2408       C  0.67190648  0.25517406  0.82609840     0.75300
O2409       O  0.74993857  0.17006720  0.89504198    -0.66300
O2410       O  0.74673393  0.20794513  0.91238534    -0.53500
C2411       C  0.74963396  0.18051634  0.90907601     0.73700
Zr2412     Zr  0.74493837  0.18948398  0.86822835     2.77500
O2413       O  0.70105793  0.16222012  0.87142877    -0.97000
O2414       O  0.77695926  0.14565553  0.86744094    -0.77900
Zr2415     Zr  0.68206860  0.25133958  0.86678706     2.70100
O2416       O  0.64708167  0.21290904  0.86485112    -0.79100
O2417       O  0.64423732  0.29019848  0.86786178    -0.98200
Zr2418     Zr  0.74238458  0.25220665  0.89687049     2.21500
Zr2419     Zr  0.74433581  0.24950590  0.83692270     2.11100
O2420       O  0.71378286  0.21952376  0.85220468    -2.46900
O2421       O  0.71263243  0.22055871  0.88266661    -0.78900
O2422       O  0.77562496  0.21882157  0.85277686    -0.71100
O2423       O  0.71030961  0.28316744  0.88177035    -2.32000
O2424       O  0.77529823  0.22005798  0.88296088    -2.28300
O2425       O  0.71173868  0.28149768  0.85126747    -0.72900
H2426       H  0.78559985  0.29287275  0.84524562     0.79100
H2427       H  0.69776547  0.29534419  0.88846719     0.80200
H2428       H  0.70202249  0.20747760  0.84550889     0.82500
H2429       H  0.78777457  0.20877446  0.88995321     0.80100
H2430       H  0.68907905  0.34178979  0.85476640     0.43100
H2431       H  0.64952887  0.30259972  0.87681789     0.42100
H2432       H  0.62890417  0.22177620  0.86929070     0.41700
H2433       H  0.69125379  0.16338627  0.86113770     0.39700
H2434       H  0.76553263  0.13005299  0.87226137     0.42800
H2435       H  0.84368139  0.20947833  0.88239536     0.37600
H2436       H  0.83462046  0.30374131  0.87056019     0.43700
H2437       H  0.79263701  0.34400370  0.86434848     0.40100
H2438       H  0.70823027  0.14157262  0.87242385     0.45000
H2439       H  0.85836685  0.21832554  0.86662989     0.43800
H2440       H  0.76737663  0.36708875  0.86035571     0.43900
H2441       H  0.64774928  0.30253107  0.85856081     0.44300
O2442       O  0.82030040  0.25280886  0.16250092    -0.74600
O2443       O  0.78404066  0.25068165  0.18066721    -0.53500
C2444       C  0.81102390  0.25151597  0.17672844     0.79100
O2445       O  0.72718830  0.33128876  0.10876861    -0.59200
O2446       O  0.73508998  0.29492781  0.09104935    -0.52200
C2447       C  0.72945485  0.32193163  0.09454744     0.71100
O2448       O  0.73408441  0.33171897  0.16193896    -0.73800
O2449       O  0.73613935  0.29537535  0.18045561    -0.54300
C2450       C  0.73537010  0.32254208  0.17621100     0.77100
O2451       O  0.82185272  0.25668481  0.10958374    -0.58900
O2452       O  0.78582328  0.25397807  0.09143289    -0.52000
C2453       C  0.81258538  0.25623974  0.09534606     0.73700
Zr2454     Zr  0.80056066  0.25414654  0.13592797     2.54700
O2455       O  0.83211652  0.29555876  0.13761461    -0.79500
O2456       O  0.84083644  0.21842144  0.13334752    -0.92900
Zr2457     Zr  0.73330881  0.31145264  0.13548652     2.64700
O2458       O  0.77015551  0.34828286  0.13504743    -0.97800
O2459       O  0.69309299  0.34770713  0.13676244    -0.79900
O2460       O  0.76656175  0.28270869  0.15096085    -0.83300
O2461       O  0.76790945  0.28366766  0.12057524    -2.18000
O2462       O  0.75759353  0.16974152  0.10908175    -0.66700
O2463       O  0.74770784  0.20536271  0.09110747    -0.51200
C2464       C  0.75526955  0.17884602  0.09480004     0.72100
O2465       O  0.65772725  0.24539182  0.16119862    -0.59600
O2466       O  0.69279432  0.24740682  0.18001939    -0.51500
C2467       C  0.66610917  0.24637768  0.17554834     0.73900
O2468       O  0.65992300  0.24666365  0.10823001    -0.71000
O2469       O  0.69729933  0.24655847  0.09066913    -0.49600
C2470       C  0.67021298  0.24625190  0.09416803     0.75300
O2471       O  0.74768560  0.16767621  0.16203390    -0.66300
O2472       O  0.74295802  0.20355059  0.18055636    -0.53500
C2473       C  0.74580023  0.17647327  0.17634715     0.73700
Zr2474     Zr  0.74628732  0.18828107  0.13551712     2.77500
O2475       O  0.70791360  0.15342620  0.13294083    -0.97000
O2476       O  0.78248009  0.14798548  0.13730861    -0.77900
Zr2477     Zr  0.67915099  0.24583525  0.13506074     2.70100
O2478       O  0.64637927  0.20533978  0.13394426    -0.79100
O2479       O  0.63872175  0.28183873  0.13606095    -0.98200
Zr2480     Zr  0.73889584  0.24942853  0.16588508     2.21500
Zr2481     Zr  0.74091890  0.25003403  0.10588690     2.11100
O2482       O  0.71266120  0.21644477  0.12014092    -2.46900
O2483       O  0.71180824  0.21633638  0.15061805    -0.78900
O2484       O  0.77458272  0.22073760  0.12076635    -0.71100
O2485       O  0.70548434  0.27887670  0.15051443    -2.32000
O2486       O  0.77348797  0.22060114  0.15088933    -2.28300
O2487       O  0.70612204  0.27915954  0.12017252    -0.72900
H2488       H  0.77839348  0.29658453  0.11379479     0.79100
H2489       H  0.69225743  0.29028676  0.15715226     0.80200
H2490       H  0.70251058  0.20383157  0.11316073     0.82500
H2491       H  0.78637806  0.20913512  0.15758134     0.80100
H2492       H  0.67792137  0.33967236  0.12999742     0.43100
H2493       H  0.64464136  0.29789262  0.12908880     0.42100
H2494       H  0.65460525  0.19070293  0.14146911     0.41700
H2495       H  0.70497098  0.15133634  0.12153566     0.39700
H2496       H  0.80126316  0.15730802  0.13559699     0.42800
H2497       H  0.83442119  0.20087685  0.13901469     0.37600
H2498       H  0.82391887  0.31005115  0.12999905     0.43700
H2499       H  0.77439115  0.35158540  0.12384213     0.40100
H2500       H  0.71714983  0.13441398  0.13623245     0.45000
H2501       H  0.85657205  0.22623656  0.13979109     0.43800
H2502       H  0.75987294  0.36660746  0.13854771     0.43900
H2503       H  0.62270991  0.27257166  0.13045092     0.44300
O2504       O  0.98800204  0.42178009  0.66346482    -0.74600
O2505       O  0.99310711  0.45826635  0.68141805    -0.53500
C2506       C  0.99012743  0.43122971  0.67762168     0.79100
O2507       O  0.57849849  0.99167160  0.60888239    -0.59200
O2508       O  0.54249952  0.99633285  0.59073308    -0.52200
C2509       C  0.56941080  0.99262045  0.59459051     0.71100
O2510       O  0.57831139  0.99383537  0.66155541    -0.73800
O2511       O  0.54299817  0.99938271  0.68016496    -0.54300
C2512       C  0.56987234  0.99593838  0.67587931     0.77100
O2513       O  0.98836993  0.42006896  0.61013738    -0.58900
O2514       O  0.99206265  0.45614157  0.59178893    -0.52000
C2515       C  0.98984335  0.42916126  0.59582970     0.73700
Zr2516     Zr  0.98882704  0.44126656  0.63660567     2.49500
O2517       O  0.52698675  0.39803353  0.63942160    -0.79500
O2518       O  0.94555519  0.41229002  0.63611351    -0.92900
Zr2519     Zr  0.55758999  0.99478387  0.63538840     2.64700
O2520       O  0.58827727  0.45011722  0.63508749    -0.97800
O2521       O  0.59927169  0.02579558  0.63609823    -0.79900
O2522       O  0.52613866  0.46827263  0.65182494    -0.83300
O2523       O  0.52569526  0.46576328  0.62148057    -2.18000
O2524       O  0.91674445  0.00674739  0.60931693    -0.66700
O2525       O  0.95342128  0.00289836  0.59133849    -0.51200
C2526       C  0.92642359  0.00532360  0.59517803     0.72100
O2527       O  0.00247675  0.08328162  0.66139417    -0.59600
O2528       O  0.99841654  0.04830178  0.68030988    -0.51500
C2529       C  0.00034532  0.07520397  0.67583586     0.73900
O2530       O  0.00633231  0.07966644  0.60840403    -0.71000
O2531       O  0.00187888  0.04263504  0.59086660    -0.49600
C2532       C  0.00501639  0.06975818  0.59430256     0.75300
O2533       O  0.91529456  0.01060123  0.66173612    -0.66300
O2534       O  0.95053392  0.00658221  0.68042065    -0.53500
C2535       C  0.92363776  0.00932923  0.67610263     0.73700
Zr2536     Zr  0.93706805  0.00777778  0.63573063     2.77500
O2537       O  0.90511281  0.05166211  0.63481040    -0.97000
O2538       O  0.89194328  0.48137933  0.63617755    -0.77900
Zr2539     Zr  0.00347026  0.06081686  0.63525853     2.70100
O2540       O  0.97043741  0.10376789  0.63543149    -0.79100
O2541       O  0.54380738  0.09614119  0.63558682    -0.98200
Zr2542     Zr  0.99726242  0.00160858  0.66648433     2.21500
Zr2543     Zr  0.99822770  0.99817327  0.60607371     2.11100
O2544       O  0.97003467  0.03418414  0.62031720    -2.46900
O2545       O  0.96956413  0.03553051  0.65068395    -0.78900
O2546       O  0.96117753  0.47528413  0.62100474    -0.71100
O2547       O  0.53049789  0.03034203  0.65040461    -2.32000
O2548       O  0.96120269  0.47645911  0.65135438    -2.28300
O2549       O  0.53094658  0.02997604  0.62008533    -0.72900
H2550       H  0.53671251  0.45228125  0.61491097     0.79100
H2551       H  0.54338403  0.04097335  0.65701624     0.80200
H2552       H  0.95941572  0.04725758  0.61333307     0.82500
H2553       H  0.94814737  0.46623318  0.65814372     0.80100
H2554       H  0.59098754  0.04559785  0.63861963     0.43100
H2555       H  0.55683800  0.08854605  0.62717759     0.42100
H2556       H  0.95321995  0.09744387  0.64130011     0.41700
H2557       H  0.91433986  0.06487341  0.62724342     0.39700
H2558       H  0.89977518  0.46122429  0.63406795     0.42800
H2559       H  0.94062731  0.40900590  0.64723298     0.37600
H2560       H  0.51460911  0.38083080  0.63870718     0.43700
H2561       H  0.57659511  0.43544816  0.64053160     0.40100
H2562       H  0.88737733  0.04540773  0.62943662     0.45000
H2563       H  0.95248772  0.39274916  0.63229045     0.43800
H2564       H  0.58853771  0.44374391  0.62402711     0.43900
H2565       H  0.53601332  0.11530166  0.63159509     0.44300
O2566       O  0.58102457  0.99440132  0.33964410    -0.74600
O2567       O  0.54504428  0.99366522  0.32127002    -0.53500
C2568       C  0.57196163  0.99371004  0.32540411     0.79100
O2569       O  0.99851332  0.41636463  0.39338133    -0.59200
O2570       O  0.99927512  0.45409046  0.41082192    -0.52200
C2571       C  0.99877931  0.42678828  0.40737920     0.71100
O2572       O  0.99948641  0.41450421  0.34040181    -0.73800
O2573       O  0.99791361  0.45020743  0.32163424    -0.54300
C2574       C  0.99847829  0.42314313  0.32603755     0.77100
O2575       O  0.58148636  0.99695516  0.39256119    -0.58900
O2576       O  0.54503271  0.99814424  0.41054343    -0.52000
C2577       C  0.57209477  0.99764432  0.40678942     0.73700
Zr2578     Zr  0.56091305  0.99466166  0.36614067     2.54700
O2579       O  0.59310860  0.45673230  0.36627467    -0.79500
O2580       O  0.60149299  0.02725644  0.36632651    -0.92900
Zr2581     Zr  0.00060361  0.43547975  0.36663130     2.64700
O2582       O  0.53998134  0.40192812  0.36631640    -0.97800
O2583       O  0.96623208  0.39632886  0.36674398    -0.79900
O2584       O  0.53002797  0.46732566  0.35043153    -0.83300
O2585       O  0.52932943  0.46869569  0.38093985    -2.18000
O2586       O  0.99480283  0.08336523  0.39029960    -0.66700
O2587       O  0.99542896  0.04726115  0.40883196    -0.51200
C2588       C  0.99470136  0.07435730  0.40466492     0.72100
O2589       O  0.91632983  0.99690060  0.33934659    -0.59600
O2590       O  0.95219140  0.99922160  0.32090790    -0.51500
C2591       C  0.92531979  0.99790213  0.32513908     0.73900
O2592       O  0.91672105  0.99695837  0.39188613    -0.71000
O2593       O  0.95300124  0.00141976  0.40962160    -0.49600
C2594       C  0.92616009  0.99879940  0.40605060     0.75300
O2595       O  0.99949357  0.07898831  0.33682890    -0.66300
O2596       O  0.00106645  0.04153843  0.31915828    -0.53500
C2597       C  0.00152970  0.06889752  0.32273542     0.73700
Zr2598     Zr  0.99517988  0.06132670  0.36393007     2.77500
O2599       O  0.95355447  0.09581748  0.36177349    -0.97000
O2600       O  0.53867467  0.09623705  0.36591855    -0.77900
Zr2601     Zr  0.93710126  0.99968843  0.36532382     2.70100
O2602       O  0.90355295  0.04237803  0.36515965    -0.79100
O2603       O  0.89893121  0.46213352  0.36492358    -0.98200
Zr2604     Zr  0.99866212  0.99751501  0.33499772     2.21500
Zr2605     Zr  0.99770186  0.00142186  0.39488626     2.11100
O2606       O  0.96537512  0.03208855  0.37978853    -2.46900
O2607       O  0.96599111  0.02970666  0.34919798    -0.78900
O2608       O  0.53162728  0.02889676  0.38068817    -0.71100
O2609       O  0.96842197  0.46579817  0.35135218    -2.32000
O2610       O  0.53133176  0.02729881  0.35074184    -2.28300
O2611       O  0.96859399  0.46625102  0.38155714    -0.72900
H2612       H  0.54142343  0.45714515  0.38795714     0.79100
H2613       H  0.95665804  0.45376880  0.34478997     0.80200
H2614       H  0.95292964  0.04427761  0.38639236     0.82500
H2615       H  0.54375647  0.03824430  0.34394305     0.80100
H2616       H  0.94866176  0.40500345  0.36157438     0.43100
H2617       H  0.90472243  0.44650619  0.37250355     0.42100
H2618       H  0.90159288  0.04797559  0.35399756     0.41700
H2619       H  0.94256613  0.08894929  0.35263100     0.39700
H2620       H  0.55667194  0.08447165  0.36833268     0.42800
H2621       H  0.59825119  0.04030030  0.35716568     0.37600
H2622       H  0.58853381  0.44520741  0.35685672     0.43700
H2623       H  0.55327802  0.40880160  0.37449572     0.40100
H2624       H  0.94116231  0.09147140  0.37089530     0.45000
H2625       H  0.61862326  0.01452900  0.36347765     0.43800
H2626       H  0.53169730  0.38405786  0.37081345     0.43900
H2627       H  0.88168687  0.47226887  0.36969287     0.44300
C2628       C  0.49822165  0.27896549  0.50938094     0.03000
C2629       C  0.49910018  0.28027068  0.49287558     0.02900
C2630       C  0.49888862  0.25412007  0.48430019    -0.17600
C2631       C  0.49970062  0.22655379  0.49157368     0.03000
C2632       C  0.50109684  0.22528894  0.50809992     0.02900
C2633       C  0.49932103  0.25144894  0.51663494    -0.17600
H2634       H  0.49939194  0.25034649  0.52932811     0.05000
H2635       H  0.49879452  0.25526241  0.47161128     0.05000
C2636       C  0.77381042  0.50493069  0.50867283     0.03000
C2637       C  0.77394498  0.50229996  0.49218017     0.02900
C2638       C  0.74734469  0.50202975  0.48424057    -0.17600
C2639       C  0.72056347  0.50298442  0.49214052     0.03000
C2640       C  0.72044736  0.50314383  0.50873859     0.02900
C2641       C  0.74708371  0.50498817  0.51661413    -0.17600
H2642       H  0.74705324  0.50596478  0.52929785     0.05000
H2643       H  0.74749932  0.50091836  0.47155720     0.05000
C2644       C  0.98863641  0.24906485  0.25004443    -0.01800
C2645       C  0.97620467  0.37965222  0.29008636    -0.04800
C2646       C  0.99335585  0.35352891  0.29192595     0.09400
C2647       C  0.01350768  0.35104189  0.30431621    -0.02200
C2648       C  0.01548493  0.37391478  0.31526925    -0.00400
C2649       C  0.99762557  0.39986786  0.31380786    -0.04000
C2650       C  0.97833658  0.40277095  0.30092283     0.03000
C2651       C  0.99082036  0.32890839  0.28048921     0.09800
C2652       C  0.03277094  0.32514774  0.30564977     0.35700
C2653       C  0.46170143  0.43028065  0.29719188     0.39100
C2654       C  0.51155229  0.32350534  0.26943140    -0.04400
C2655       C  0.51002090  0.30048682  0.25846730     0.02800
C2656       C  0.98849894  0.27918071  0.25980455    -0.04000
C2657       C  0.96511813  0.28676225  0.27054221    -0.00200
C2658       C  0.96668279  0.31109860  0.28077945    -0.02800
C2659       C  0.53546380  0.34344021  0.26885806     0.36500
C2660       C  0.94035716  0.26848084  0.27267282     0.40100
C2661       C  0.52836161  0.30399908  0.24482190     0.39200
C2662       C  0.94451466  0.31646023  0.29268042     0.36100
C2663       C  0.45599138  0.38196477  0.27655042     0.36800
C2664       C  0.03666647  0.37079134  0.32778178     0.40100
N2665       N  0.54297126  0.30847220  0.23411319    -0.38000
N2666       N  0.55458052  0.35913628  0.26849328    -0.39600
N2667       N  0.92004944  0.25514635  0.27529374    -0.37300
N2668       N  0.92708140  0.32070696  0.30226422    -0.39700
N2669       N  0.04862175  0.30487852  0.30672679    -0.39500
N2670       N  0.05369763  0.36791194  0.33766407    -0.37100
N2671       N  0.44881599  0.45195889  0.29434667    -0.38200
N2672       N  0.44053693  0.38383427  0.26589677    -0.39800
C2673       C  0.02453305  0.13698091  0.30068202    -0.04800
C2674       C  0.00371254  0.13869350  0.28854796     0.09400
C2675       C  0.98580585  0.11463381  0.28612366    -0.02200
C2676       C  0.98835885  0.08972794  0.29597777    -0.00400
C2677       C  0.00496503  0.09078819  0.30987620    -0.04000
C2678       C  0.02407612  0.11405535  0.31177350     0.03000
C2679       C  0.00006103  0.16634300  0.27891298     0.09800
C2680       C  0.96378521  0.11591458  0.27399757     0.35700
C2681       C  0.04398890  0.11420526  0.32489253     0.39100
C2682       C  0.50761796  0.16546353  0.26373902    -0.04400
C2683       C  0.50124215  0.19061793  0.25437893     0.02800
C2684       C  0.99311357  0.22022168  0.26085834    -0.04000
C2685       C  0.99334573  0.21982679  0.27779885    -0.00200
C2686       C  0.99255702  0.19312109  0.28620708    -0.02800
C2687       C  0.52072810  0.13901360  0.25681303     0.36500
C2688       C  0.99862764  0.24487800  0.28755449     0.40100
C2689       C  0.50024170  0.18531954  0.23769182     0.39200
C2690       C  0.98512636  0.19337940  0.30277766     0.36100
C2691       C  0.04615289  0.15916132  0.30191040     0.36800
C2692       C  0.97478942  0.06295544  0.29138563     0.40100
N2693       N  0.49960129  0.17872311  0.22463751    -0.38000
N2694       N  0.53123298  0.11791727  0.25136826    -0.39600
N2695       N  0.00362316  0.26329229  0.29631617    -0.37300
N2696       N  0.97933938  0.19362698  0.31595862    -0.39700
N2697       N  0.45182733  0.11199797  0.26426734    -0.39500
N2698       N  0.96471057  0.04142630  0.28730771    -0.37100
N2699       N  0.05999802  0.11478450  0.33529239    -0.38200
N2700       N  0.06340498  0.17681982  0.30288921    -0.39800
C2701       C  0.52059200  0.14011446  0.43067121    -0.04800
C2702       C  0.99405200  0.13630054  0.44310107     0.09400
C2703       C  0.97657367  0.11168834  0.44365165    -0.02200
C2704       C  0.97568644  0.09245462  0.43080676    -0.00400
C2705       C  0.99371759  0.09650148  0.41755445    -0.04000
C2706       C  0.52057013  0.11982105  0.41819128     0.03000
C2707       C  0.99349449  0.15746345  0.45651541     0.09800
C2708       C  0.95962883  0.10601521  0.45760982     0.35700
C2709       C  0.54045206  0.12338337  0.40521829     0.39100
C2710       C  0.96850629  0.17570063  0.45925203    -0.04400
C2711       C  0.96784501  0.19566347  0.47179468     0.02800
C2712       C  0.49902699  0.20048046  0.48106855    -0.04000
C2713       C  0.52371199  0.18128631  0.47927127    -0.00200
C2714       C  0.52408471  0.15929802  0.46768347    -0.02800
C2715       C  0.94363160  0.17445535  0.44889046     0.36500
C2716       C  0.54989376  0.18568992  0.48815471     0.40100
C2717       C  0.94227054  0.21496618  0.47405290     0.39200
C2718       C  0.54807885  0.13772288  0.46688069     0.36100
C2719       C  0.53948172  0.16480851  0.43009811     0.36800
C2720       C  0.95557176  0.06887389  0.43132318     0.40100
N2721       N  0.92200108  0.23046184  0.47584627    -0.38000
N2722       N  0.92371225  0.17339399  0.44070131    -0.39600
N2723       N  0.57142918  0.18894830  0.49475282    -0.37300
N2724       N  0.56702879  0.12028635  0.46627763    -0.39700
N2725       N  0.94619100  0.10162175  0.46876405    -0.39500
N2726       N  0.93915846  0.05042056  0.43215611    -0.37100
N2727       N  0.55659481  0.12663432  0.39503228    -0.38200
N2728       N  0.55471031  0.18437400  0.42968650    -0.39800
C2729       C  0.51530438  0.39769850  0.44720066    -0.04800
C2730       C  0.50184447  0.37072585  0.44631587     0.09400
C2731       C  0.97846289  0.36398490  0.43399202    -0.02200
C2732       C  0.97828723  0.38367830  0.42127520    -0.00400
C2733       C  0.99864589  0.40600324  0.42068070    -0.04000
C2734       C  0.51610283  0.41598187  0.43397919     0.03000
C2735       C  0.50252848  0.35069239  0.46001380     0.09800
C2736       C  0.96003988  0.33892341  0.43368461     0.35700
C2737       C  0.53189537  0.44268817  0.43512893     0.39100
C2738       C  0.97409272  0.34699859  0.47076136    -0.04400
C2739       C  0.97309264  0.32501751  0.48236891     0.02800
C2740       C  0.50172172  0.30761948  0.48363851    -0.04000
C2741       C  0.52679209  0.31048259  0.47417832    -0.00200
C2742       C  0.52722957  0.33215174  0.46251545    -0.02800
C2743       C  0.95033983  0.36875179  0.46923037     0.36500
C2744       C  0.55141205  0.28966506  0.47560712     0.40100
C2745       C  0.94651854  0.32178605  0.49118183     0.39200
C2746       C  0.55239674  0.33423450  0.45236718     0.36100
C2747       C  0.52868244  0.40645620  0.46175186     0.36800
C2748       C  0.95633549  0.38168173  0.40920338     0.40100
N2749       N  0.92479749  0.31940500  0.49779248    -0.38000
N2750       N  0.93142455  0.38610898  0.46796085    -0.39600
N2751       N  0.57095072  0.27298300  0.47665494    -0.37300
N2752       N  0.57231459  0.33597122  0.44419500    -0.39700
N2753       N  0.94561618  0.31873578  0.43333845    -0.39500
N2754       N  0.93857766  0.38026491  0.39969878    -0.37100
N2755       N  0.54469363  0.46375641  0.43665192    -0.38200
N2756       N  0.53941829  0.41350442  0.47330457    -0.39800
C2757       C  0.65444312  0.48057871  0.46879983    -0.04800
C2758       C  0.65127114  0.50439376  0.45827277     0.09400
C2759       C  0.67043991  0.02284179  0.46092147    -0.02200
C2760       C  0.69083309  0.02380876  0.47312396    -0.00400
C2761       C  0.69398933  0.50474815  0.48211508    -0.04000
C2762       C  0.67613145  0.48043884  0.48048222     0.03000
C2763       C  0.63001226  0.50356692  0.44506152     0.09800
C2764       C  0.66628516  0.04775316  0.45042119     0.35700
C2765       C  0.68133293  0.45427058  0.48987576     0.39100
C2766       C  0.60627143  0.01053431  0.44694666    -0.04400
C2767       C  0.58681240  0.01217157  0.43424053     0.02800
C2768       C  0.59003959  0.50313952  0.41968305    -0.04000
C2769       C  0.61730946  0.48746656  0.41873275    -0.00200
C2770       C  0.63732410  0.48824055  0.43122559    -0.02800
C2771       C  0.59814172  0.02365666  0.46187360     0.36500
C2772       C  0.62448946  0.46906506  0.40535325     0.40100
C2773       C  0.56016694  0.02990000  0.43604431     0.39200
C2774       C  0.66572839  0.47345024  0.42982831     0.36100
C2775       C  0.63584540  0.45582383  0.46727639     0.36800
C2776       C  0.70714249  0.05012757  0.47521870     0.40100
N2777       N  0.53922247  0.04433523  0.43793171    -0.38000
N2778       N  0.59175061  0.03397115  0.47380937    -0.39600
N2779       N  0.63054300  0.45404572  0.39485619    -0.37300
N2780       N  0.68845105  0.46182055  0.42872017    -0.39700
N2781       N  0.66315608  0.06748160  0.44195137    -0.39500
N2782       N  0.72016706  0.07108240  0.47685241    -0.37100
N2783       N  0.68507254  0.43289430  0.49705221    -0.38200
N2784       N  0.62096644  0.43610826  0.46606025    -0.39800
C2785       C  0.82889667  0.46956047  0.46320785    -0.04800
C2786       C  0.84592565  0.49379747  0.45992041     0.09400
C2787       C  0.84026736  0.02351387  0.46843054    -0.02200
C2788       C  0.81891239  0.02342285  0.48035465    -0.00400
C2789       C  0.80084765  0.49873432  0.48248412    -0.04000
C2790       C  0.80629658  0.47205865  0.47430455     0.03000
C2791       C  0.86552752  0.99959574  0.44512663     0.09800
C2792       C  0.85755168  0.04905496  0.46609560     0.35700
C2793       C  0.78743214  0.44764088  0.47658036     0.39100
C2794       C  0.85678424  0.49980743  0.43131580    -0.04400
C2795       C  0.87684804  0.01244287  0.41797349     0.02800
C2796       C  0.90476619  0.99825857  0.41932440    -0.04000
C2797       C  0.91274561  0.98505735  0.43388495    -0.00200
C2798       C  0.89335867  0.98605630  0.44667423    -0.02800
C2799       C  0.82620042  0.50760321  0.42895997     0.36500
C2800       C  0.94096405  0.97042262  0.43605786     0.40100
C2801       C  0.86857379  0.02824873  0.40380332     0.39200
C2802       C  0.90213978  0.97327158  0.46160198     0.36100
C2803       C  0.83387038  0.44239382  0.45463316     0.36800
C2804       C  0.81175324  0.05024052  0.48881403     0.40100
N2805       N  0.85588364  0.51705384  0.39144876    -0.38000
N2806       N  0.80177203  0.51362411  0.42716440    -0.39600
N2807       N  0.96340980  0.95894365  0.43833696    -0.37300
N2808       N  0.90920393  0.96314834  0.47350127    -0.39700
N2809       N  0.87153341  0.06930996  0.46425400    -0.39500
N2810       N  0.80600029  0.07199356  0.49526350    -0.37100
N2811       N  0.77226041  0.42828313  0.47836672    -0.38200
N2812       N  0.83778386  0.42073798  0.44777647    -0.39800
C2813       C  0.65265528  0.01256354  0.53258617    -0.04800
C2814       C  0.65053140  0.49508079  0.54219984     0.09400
C2815       C  0.67217089  0.47249902  0.54051110    -0.02200
C2816       C  0.69352536  0.47429446  0.52873804    -0.00400
C2817       C  0.69407813  0.49915036  0.51872111    -0.04000
C2818       C  0.67463554  0.01486599  0.52111262     0.03000
C2819       C  0.62956876  0.49459834  0.55574489     0.09800
C2820       C  0.67295665  0.44769916  0.55119526     0.35700
C2821       C  0.67665173  0.04215060  0.51255332     0.39100
C2822       C  0.60665328  0.47499921  0.55588541    -0.04400
C2823       C  0.58753035  0.47403703  0.56884339     0.02800
C2824       C  0.59020066  0.49373329  0.58154291    -0.04000
C2825       C  0.61911303  0.00203468  0.58291547    -0.00200
C2826       C  0.63901856  0.00064976  0.57030446    -0.02800
C2827       C  0.60288449  0.45574426  0.54262101     0.36500
C2828       C  0.62708058  0.01754580  0.59694813     0.40100
C2829       C  0.56584354  0.45189573  0.56927002     0.39200
C2830       C  0.66734634  0.01316248  0.57189756     0.36100
C2831       C  0.63094698  0.03621774  0.53468008     0.36800
C2832       C  0.71570598  0.45085111  0.52726664     0.40100
N2833       N  0.54887281  0.43387988  0.56947765    -0.38000
N2834       N  0.60015626  0.44046927  0.53197981    -0.39600
N2835       N  0.63400595  0.03007118  0.60799462    -0.37300
N2836       N  0.68996604  0.02304584  0.57318641    -0.39700
N2837       N  0.67353712  0.42783675  0.55966811    -0.39500
N2838       N  0.73346385  0.43229843  0.52597477    -0.37100
N2839       N  0.67761023  0.06448590  0.50615305    -0.38200
N2840       N  0.61348926  0.05492279  0.53641316    -0.39800
C2841       C  0.85799482  0.49451507  0.56906230    -0.04800
C2842       C  0.86518404  0.00749516  0.55694504     0.09400
C2843       C  0.88727898  0.02802941  0.55757661    -0.02200
C2844       C  0.90649452  0.02807598  0.57041642    -0.00400
C2845       C  0.90484262  0.00654365  0.58228036    -0.04000
C2846       C  0.87730825  0.49364502  0.58190131     0.03000
C2847       C  0.84367813  0.51165364  0.54194207     0.09800
C2848       C  0.89018286  0.04916922  0.54501687     0.35700
C2849       C  0.87254522  0.47332389  0.59464329     0.39100
C2850       C  0.82383876  0.53556358  0.53932742    -0.04400
C2851       C  0.80285934  0.53422513  0.52737037     0.02800
C2852       C  0.80043595  0.50832290  0.51841361    -0.04000
C2853       C  0.82038253  0.48440365  0.52106332    -0.00200
C2854       C  0.84261694  0.48657608  0.53232948    -0.02800
C2855       C  0.82081814  0.05363116  0.55283673     0.36500
C2856       C  0.81635423  0.45637738  0.51362483     0.40100
C2857       C  0.78242414  0.55893280  0.52494274     0.39200
C2858       C  0.86364661  0.46234907  0.53459940     0.36100
C2859       C  0.83195475  0.47764102  0.56950751     0.36800
C2860       C  0.92724379  0.05101005  0.57170244     0.40100
N2861       N  0.76594652  0.57844978  0.52297645    -0.38000
N2862       N  0.81906662  0.07261292  0.56179155    -0.39600
N2863       N  0.81350890  0.43342122  0.50824426    -0.37300
N2864       N  0.88040499  0.44302373  0.53641624    -0.39700
N2865       N  0.89236586  0.06608425  0.53500680    -0.39500
N2866       N  0.94344116  0.06962614  0.57277599    -0.37100
N2867       N  0.86862106  0.45674879  0.60462972    -0.38200
N2868       N  0.81110276  0.46431431  0.56976509    -0.39800
C2869       C  0.53195444  0.17416701  0.53924934    -0.04800
C2870       C  0.00461110  0.15060352  0.54138704     0.09400
C2871       C  0.98041797  0.15243596  0.53129612    -0.02200
C2872       C  0.97823621  0.17461269  0.51975243    -0.00400
C2873       C  0.50563347  0.19799023  0.51747360    -0.04000
C2874       C  0.53047914  0.19534491  0.52727081     0.03000
C2875       C  0.00515078  0.12993444  0.55494144     0.09800
C2876       C  0.95697157  0.13250469  0.53343607     0.35700
C2877       C  0.55354470  0.21605915  0.52585858     0.39100
C2878       C  0.49579656  0.14468134  0.56923445    -0.04400
C2879       C  0.49464187  0.12545589  0.58218026     0.02800
C2880       C  0.00652215  0.09111035  0.58097287    -0.04000
C2881       C  0.01885024  0.08225411  0.56635935    -0.00200
C2882       C  0.01763315  0.10146057  0.55338625    -0.02800
C2883       C  0.48276361  0.17419608  0.57018566     0.36500
C2884       C  0.03386482  0.05387644  0.56456875     0.40100
C2885       C  0.47908687  0.13541563  0.59606562     0.39200
C2886       C  0.02967368  0.09221705  0.53840121     0.36100
C2887       C  0.55643129  0.17297648  0.54994093     0.36800
C2888       C  0.95181190  0.17794418  0.51064010     0.40100
N2889       N  0.46644802  0.14413221  0.60691766    -0.38000
N2890       N  0.47235828  0.19770944  0.57084639    -0.39600
N2891       N  0.04605142  0.03143737  0.56278786    -0.37300
N2892       N  0.03924565  0.08503938  0.52641902    -0.39700
N2893       N  0.93818612  0.11671233  0.53516591    -0.39500
N2894       N  0.93028373  0.17994379  0.50368712    -0.37100
N2895       N  0.57167359  0.23280235  0.52475548    -0.38200
N2896       N  0.57595741  0.17229884  0.55846078    -0.39800
C2897       C  0.51863723  0.34282028  0.53520921    -0.04800
C2898       C  0.99239765  0.34483815  0.54468405     0.09400
C2899       C  0.96784934  0.32792458  0.54240213    -0.02200
C2900       C  0.96777662  0.30677739  0.53044568    -0.00400
C2901       C  0.49547641  0.30480857  0.52000512    -0.04000
C2902       C  0.51922235  0.32292230  0.52258301     0.03000
C2903       C  0.99241867  0.36665535  0.55771268     0.09800
C2904       C  0.94301023  0.33161906  0.55278930     0.35700
C2905       C  0.54526109  0.31988335  0.51312757     0.39100
C2906       C  0.47573158  0.38997489  0.55860490    -0.04400
C2907       C  0.47415644  0.40925069  0.57140010     0.02800
C2908       C  0.98975115  0.40704918  0.58294214    -0.04000
C2909       C  0.00611788  0.38011089  0.58429899    -0.00200
C2910       C  0.00681098  0.35976479  0.57187612    -0.02800
C2911       C  0.45828314  0.39620412  0.54475350     0.36500
C2912       C  0.02378981  0.37378403  0.59802102     0.40100
C2913       C  0.45340140  0.43396282  0.57090277     0.39200
C2914       C  0.02240207  0.33163355  0.57364112     0.36100
C2915       C  0.54288090  0.36159551  0.53777733     0.36800
C2916       C  0.94290793  0.28843160  0.52886861     0.40100
N2917       N  0.43655185  0.45340233  0.57013642    -0.38000
N2918       N  0.44438499  0.40101193  0.53370189    -0.39600
N2919       N  0.03833202  0.36843773  0.60876739    -0.37300
N2920       N  0.03481153  0.30919369  0.57507240    -0.39700
N2921       N  0.92328436  0.33463663  0.56111610    -0.39500
N2922       N  0.92316729  0.27368236  0.52769466    -0.37100
N2923       N  0.56664666  0.31816782  0.50601437    -0.38200
N2924       N  0.56224508  0.37647959  0.53990225    -0.39800
C2925       C  0.61590541  0.22235470  0.20833477    -0.04800
C2926       C  0.59492514  0.24589685  0.20872028     0.09400
C2927       C  0.59816441  0.27009760  0.19852502    -0.02200
C2928       C  0.62147688  0.27022338  0.18777204    -0.00400
C2929       C  0.64276696  0.24696722  0.18764590    -0.04000
C2930       C  0.64019904  0.22338111  0.19823789     0.03000
C2931       C  0.56845868  0.24443659  0.21910953     0.09800
C2932       C  0.57693747  0.29453309  0.19868546     0.35700
C2933       C  0.66189060  0.19947260  0.19832941     0.39100
C2934       C  0.57094552  0.24476009  0.23547132    -0.04400
C2935       C  0.54594435  0.24393285  0.24515785     0.02800
C2936       C  0.51686539  0.24555726  0.23868654    -0.04000
C2937       C  0.51537858  0.24325080  0.22180735    -0.00200
C2938       C  0.54084936  0.24226228  0.21243388    -0.02800
C2939       C  0.59950832  0.24743201  0.24242383     0.36500
C2940       C  0.48888622  0.23892775  0.21322573     0.40100
C2941       C  0.55117373  0.24442088  0.26190059     0.39200
C2942       C  0.53883748  0.23802286  0.19558150     0.36100
C2943       C  0.61164386  0.19630187  0.21771585     0.36800
C2944       C  0.62342997  0.29436047  0.17674826     0.40100
N2945       N  0.55720235  0.24507887  0.27502874    -0.38000
N2946       N  0.62222302  0.24957287  0.24798011    -0.39600
N2947       N  0.96844767  0.23964755  0.20487277    -0.37300
N2948       N  0.53725648  0.23462936  0.18220229    -0.39700
N2949       N  0.55990525  0.31392280  0.19857593    -0.39500
N2950       N  0.62484876  0.31363349  0.16797124    -0.37100
N2951       N  0.67914958  0.18032779  0.19860830    -0.38200
N2952       N  0.60806498  0.17550517  0.22515736    -0.39800
C2953       C  0.85333326  0.26784999  0.21413550    -0.04800
C2954       C  0.87930748  0.25085825  0.21167493     0.09400
C2955       C  0.88150113  0.23221294  0.19853561    -0.02200
C2956       C  0.85868964  0.23163577  0.18758288    -0.00400
C2957       C  0.83353418  0.25025587  0.18934575    -0.04000
C2958       C  0.83046386  0.26746139  0.20308124     0.03000
C2959       C  0.90435849  0.25195740  0.22296563     0.09800
C2960       C  0.90703629  0.21292586  0.19635712     0.35700
C2961       C  0.80377833  0.28455686  0.20602988     0.39100
C2962       C  0.91083235  0.22833924  0.23304295    -0.04400
C2963       C  0.93607658  0.22771723  0.24258680     0.02800
C2964       C  0.95758877  0.25004454  0.24119851    -0.04000
C2965       C  0.94816704  0.27552644  0.23203191    -0.00200
C2966       C  0.92201071  0.27621480  0.22323324    -0.02800
C2967       C  0.89038645  0.20486024  0.23393864     0.36500
C2968       C  0.96530115  0.30126453  0.23029286     0.40100
C2969       C  0.93642784  0.20543486  0.25472882     0.39200
C2970       C  0.91364335  0.30182436  0.21379848     0.36100
C2971       C  0.85010228  0.28557981  0.22813571     0.36800
C2972       C  0.86041641  0.21001757  0.17516577     0.40100
N2973       N  0.93489222  0.18764612  0.26435948    -0.38000
N2974       N  0.87397286  0.18633455  0.23457620    -0.39600
N2975       N  0.97646313  0.32313422  0.22793220    -0.37300
N2976       N  0.90688056  0.32230729  0.20642014    -0.39700
N2977       N  0.92694161  0.19699954  0.19446769    -0.39500
N2978       N  0.86221981  0.19207366  0.16563641    -0.37100
N2979       N  0.78237191  0.29784512  0.20862901    -0.38200
N2980       N  0.84757521  0.29978173  0.23929173    -0.39800
C2981       C  0.78964861  0.08704406  0.03435606    -0.04800
C2982       C  0.76448642  0.09682133  0.04258423     0.09400
C2983       C  0.73754135  0.08477331  0.03914419    -0.02200
C2984       C  0.73620995  0.06114071  0.02872407    -0.00400
C2985       C  0.76105950  0.05190036  0.02002308    -0.04000
C2986       C  0.78781462  0.06508860  0.02279973     0.03000
C2987       C  0.76633464  0.11755984  0.05603858     0.09800
C2988       C  0.71123525  0.09619569  0.04672698     0.35700
C2989       C  0.81394055  0.05427518  0.01487152     0.39100
C2990       C  0.76872789  0.14779718  0.05343852    -0.04400
C2991       C  0.76704995  0.16759806  0.06611756     0.02800
C2992       C  0.76115279  0.15741233  0.08160156    -0.04000
C2993       C  0.75970587  0.12656816  0.08405250    -0.00200
C2994       C  0.76317924  0.10691497  0.07140557    -0.02800
C2995       C  0.77210379  0.15856354  0.03755663     0.36500
C2996       C  0.75321748  0.11447532  0.09932211     0.40100
C2997       C  0.77144243  0.19838359  0.06286675     0.39200
C2998       C  0.76280505  0.07543185  0.07409206     0.36100
C2999       C  0.81756367  0.09854583  0.03836972     0.36800
C3000       C  0.70991156  0.04467439  0.02808848     0.40100
N3001       N  0.77490427  0.22283185  0.06000917    -0.38000
N3002       N  0.77476080  0.16699903  0.02487110    -0.39600
N3003       N  0.74795656  0.10439876  0.11139093    -0.37300
N3004       N  0.76259296  0.05032954  0.07612930    -0.39700
N3005       N  0.69023102  0.10546650  0.05267473    -0.39500
N3006       N  0.68916757  0.03118491  0.02781545    -0.37100
N3007       N  0.83504920  0.04569183  0.00876526    -0.38200
N3008       N  0.83980440  0.10769663  0.04167429    -0.39800
C3009       C  0.72537022  0.35276480  0.05261822    -0.04800
C3010       C  0.73256589  0.38210057  0.05503983     0.09400
C3011       C  0.73390288  0.39299181  0.07042366    -0.02200
C3012       C  0.73141722  0.37398593  0.08338857    -0.00400
C3013       C  0.72667061  0.34361346  0.08112833    -0.04000
C3014       C  0.72178259  0.33374543  0.06551695     0.03000
C3015       C  0.73947735  0.40178692  0.04154054     0.09800
C3016       C  0.73813762  0.42405559  0.07286487     0.35700
C3017       C  0.71345117  0.30394105  0.06239318     0.39100
C3018       C  0.71703594  0.41403898  0.03204263    -0.04400
C3019       C  0.72300802  0.43612922  0.02102051     0.02800
C3020       C  0.75158701  0.44585576  0.01922444    -0.04000
C3021       C  0.77406513  0.43344147  0.02873493    -0.00200
C3022       C  0.76818734  0.41093505  0.03949256    -0.02800
C3023       C  0.68742940  0.40512749  0.03425534     0.36500
C3024       C  0.80276248  0.44548495  0.02843256     0.40100
C3025       C  0.69904934  0.45120697  0.01297702     0.39200
C3026       C  0.79149076  0.39811528  0.04905063     0.36100
C3027       C  0.72198627  0.34204821  0.03677091     0.36800
C3028       C  0.73460454  0.38621594  0.09890322     0.40100
N3029       N  0.67947339  0.46332990  0.00699702    -0.38000
N3030       N  0.66382596  0.39792348  0.03595975    -0.39600
N3031       N  0.82556101  0.45527473  0.02836082    -0.37300
N3032       N  0.81003376  0.38799864  0.05672532    -0.39700
N3033       N  0.74144018  0.44883176  0.07472509    -0.39500
N3034       N  0.73705066  0.39653996  0.11115863    -0.37100
N3035       N  0.70697854  0.28022890  0.05966076    -0.38200
N3036       N  0.71897810  0.33363078  0.02413867    -0.39800
C3037       C  0.78523442  0.08088065  0.96324642    -0.04800
C3038       C  0.76120836  0.10093663  0.96230153     0.09400
C3039       C  0.73797668  0.09880090  0.97291519    -0.02200
C3040       C  0.73729416  0.07487636  0.98337225    -0.00400
C3041       C  0.76111343  0.05429038  0.98422159    -0.04000
C3042       C  0.78528477  0.05769999  0.97419812     0.03000
C3043       C  0.75840392  0.12152449  0.94871440     0.09800
C3044       C  0.71408940  0.12059800  0.97252484     0.35700
C3045       C  0.80924975  0.03602071  0.97425114     0.39100
C3046       C  0.74114981  0.11407069  0.93581220    -0.04400
C3047       C  0.73786862  0.13338601  0.92296506     0.02800
C3048       C  0.75315904  0.15968933  0.92251923    -0.04000
C3049       C  0.77145710  0.16635791  0.93527417    -0.00200
C3050       C  0.77346593  0.14771603  0.94845297    -0.02800
C3051       C  0.72721780  0.08607198  0.93567594     0.36500
C3052       C  0.78958018  0.19152396  0.93466789     0.40100
C3053       C  0.71785342  0.12640264  0.91058345     0.39200
C3054       C  0.79141731  0.15521012  0.96168399     0.36100
C3055       C  0.80923979  0.08334946  0.95237286     0.36800
C3056       C  0.71041140  0.06970391  0.99152856     0.40100
N3057       N  0.70156213  0.12036776  0.90094006    -0.38000
N3058       N  0.71642383  0.06359043  0.93560279    -0.39600
N3059       N  0.80467156  0.21115276  0.93447306    -0.37300
N3060       N  0.80579186  0.16119056  0.97220592    -0.39700
N3061       N  0.69513337  0.13806945  0.97229496    -0.39500
N3062       N  0.68953099  0.56311959  0.99797331    -0.37100
N3063       N  0.82824446  0.01859382  0.97410950    -0.38200
N3064       N  0.82829483  0.08553678  0.94366223    -0.39800
C3065       C  0.72272261  0.42932687  0.96077506    -0.04800
C3066       C  0.74292549  0.40546581  0.95931195     0.09400
C3067       C  0.76575291  0.40188153  0.97020375    -0.02200
C3068       C  0.77020403  0.42371073  0.98154007    -0.00400
C3069       C  0.75009011  0.44788335  0.98303634    -0.04000
C3070       C  0.72582184  0.45001359  0.97280098     0.03000
C3071       C  0.74139298  0.38521388  0.94563568     0.09800
C3072       C  0.78502779  0.37591561  0.96941411     0.35700
C3073       C  0.70487542  0.47461467  0.97398300     0.39100
C3074       C  0.76058522  0.38820249  0.93287910    -0.04400
C3075       C  0.76010378  0.36839552  0.92025721     0.02800
C3076       C  0.73919301  0.34656077  0.91984647    -0.04000
C3077       C  0.71933434  0.34428924  0.93242481    -0.00200
C3078       C  0.72103015  0.36299822  0.94545737    -0.02800
C3079       C  0.78108015  0.41154438  0.93282299     0.36500
C3080       C  0.69686309  0.32292465  0.93195990     0.40100
C3081       C  0.78241858  0.36934392  0.90828497     0.39200
C3082       C  0.70238004  0.35890554  0.95891162     0.36100
C3083       C  0.69943771  0.43331013  0.94945078     0.36800
C3084       C  0.79717833  0.42267882  0.99022563     0.40100
N3085       N  0.80055827  0.36997643  0.89892081    -0.38000
N3086       N  0.79739900  0.43018539  0.93270865    -0.39600
N3087       N  0.67876898  0.30606719  0.93166872    -0.37300
N3088       N  0.68770542  0.35547284  0.96970976    -0.39700
N3089       N  0.80002955  0.35495307  0.96875904    -0.39500
N3090       N  0.81937263  0.42132982  0.99656469    -0.37100
N3091       N  0.68840351  0.49441213  0.97487432    -0.38200
N3092       N  0.68092748  0.43661974  0.94039469    -0.39800
C3093       C  0.01756654  0.14548557  0.69815596    -0.04800
C3094       C  0.99767845  0.14502505  0.71075650     0.09400
C3095       C  0.97955113  0.12089593  0.71228268    -0.02200
C3096       C  0.98052065  0.09807457  0.70105475    -0.00400
C3097       C  0.99995428  0.09880624  0.68815575    -0.04000
C3098       C  0.01889456  0.12251758  0.68703976     0.03000
C3099       C  0.99573500  0.17020106  0.72227644     0.09800
C3100       C  0.95957736  0.11966368  0.72539860     0.35700
C3101       C  0.04075632  0.12293295  0.67481595     0.39100
C3102       C  0.97132627  0.18961498  0.72253917    -0.04400
C3103       C  0.97030395  0.21466626  0.73240930     0.02800
C3104       C  0.99463834  0.22197554  0.74220882    -0.04000
C3105       C  0.51756542  0.19893730  0.74394540    -0.00200
C3106       C  0.51868708  0.17482097  0.73345778    -0.02800
C3107       C  0.94744281  0.18446652  0.71189502     0.36500
C3108       C  0.53886572  0.19677541  0.75636016     0.40100
C3109       C  0.94443385  0.23362477  0.73082842     0.39200
C3110       C  0.54299411  0.15336587  0.73389802     0.36100
C3111       C  0.03684434  0.16972665  0.69659977     0.36800
C3112       C  0.96067893  0.07437664  0.70269539     0.40100
N3113       N  0.92289387  0.24685487  0.72845728    -0.38000
N3114       N  0.92839034  0.18029261  0.70348320    -0.39600
N3115       N  0.55568583  0.19320172  0.76629126    -0.37300
N3116       N  0.56236472  0.13637354  0.73417483    -0.39700
N3117       N  0.94342745  0.11875133  0.73575889    -0.39500
N3118       N  0.94468442  0.05567767  0.70429100    -0.37100
N3119       N  0.05843340  0.12350982  0.66519798    -0.38200
N3120       N  0.55378288  0.18943529  0.69631033    -0.39800
C3121       C  0.51790675  0.37755604  0.71125271    -0.04800
C3122       C  0.98809476  0.36258196  0.71277761     0.09400
C3123       C  0.96263202  0.37107686  0.70437547    -0.02200
C3124       C  0.96317982  0.39382656  0.69308502    -0.00400
C3125       C  0.98888336  0.40902040  0.69045229    -0.04000
C3126       C  0.51841695  0.40104129  0.70037139     0.03000
C3127       C  0.98931564  0.33499364  0.72266652     0.09800
C3128       C  0.93595463  0.35605401  0.70711659     0.35700
C3129       C  0.54506810  0.41618742  0.69782388     0.39100
C3130       C  0.49461286  0.33576909  0.73993668    -0.04400
C3131       C  0.49565144  0.30960957  0.74909783     0.02800
C3132       C  0.99342412  0.28117067  0.74119273    -0.04000
C3133       C  0.99426323  0.28113556  0.72420222    -0.00200
C3134       C  0.99101173  0.30752169  0.71537026    -0.02800
C3135       C  0.49401714  0.36437261  0.74743930     0.36500
C3136       C  0.00194999  0.25552880  0.71487456     0.40100
C3137       C  0.49606737  0.31392212  0.76588065     0.39200
C3138       C  0.99080133  0.30667852  0.69832944     0.36100
C3139       C  0.54423033  0.36833874  0.71951858     0.36800
C3140       C  0.93703806  0.40217542  0.68441789     0.40100
N3141       N  0.49645971  0.32003505  0.77900589    -0.38000
N3142       N  0.49341256  0.38714327  0.75340890    -0.39600
N3143       N  0.00858132  0.23639147  0.70657062    -0.37300
N3144       N  0.99064538  0.30629508  0.68479293    -0.39700
N3145       N  0.91448261  0.34428227  0.70917449    -0.39500
N3146       N  0.91615751  0.40915400  0.67761235    -0.37100
N3147       N  0.56641542  0.42822826  0.69591244    -0.38200
N3148       N  0.56515450  0.36095838  0.72617873    -0.39800
C3149       C  0.60736314  0.28223633  0.80125867    -0.04800
C3150       C  0.60239221  0.25717837  0.79208399     0.09400
C3151       C  0.62227028  0.23274450  0.79298807    -0.02200
C3152       C  0.64596885  0.23285917  0.80348104    -0.00400
C3153       C  0.64963642  0.25701263  0.81347107    -0.04000
C3154       C  0.63058031  0.28199764  0.81207469     0.03000
C3155       C  0.57512653  0.25605060  0.78235288     0.09800
C3156       C  0.61810963  0.20697193  0.78351185     0.35700
C3157       C  0.63507278  0.30764913  0.82162815     0.39100
C3158       C  0.57592317  0.25976116  0.76609398    -0.04400
C3159       C  0.55026731  0.25806672  0.75696903     0.02800
C3160       C  0.52197828  0.25447081  0.76404242    -0.04000
C3161       C  0.52190316  0.25481504  0.78102564    -0.00200
C3162       C  0.54817840  0.25302143  0.78969318    -0.02800
C3163       C  0.60371509  0.26471918  0.75866111     0.36500
C3164       C  0.49623621  0.26079242  0.79050028     0.40100
C3165       C  0.55467689  0.25780809  0.74018404     0.39200
C3166       C  0.54754792  0.24887317  0.80658719     0.36100
C3167       C  0.58824660  0.30816268  0.79963834     0.36800
C3168       C  0.66588470  0.20745645  0.80446017     0.40100
N3169       N  0.56077651  0.25745728  0.72704731    -0.38000
N3170       N  0.62584618  0.26868156  0.75275429    -0.39600
N3171       N  0.97705893  0.26666897  0.79781269    -0.37300
N3172       N  0.54716284  0.24558991  0.82001593    -0.39700
N3173       N  0.61567172  0.18600095  0.77611913    -0.39500
N3174       N  0.68165955  0.18709172  0.80514270    -0.37100
N3175       N  0.63865447  0.32825666  0.82914584    -0.38200
N3176       N  0.57289106  0.32874069  0.79823762    -0.39800
C3177       C  0.88369285  0.26714012  0.80382271    -0.04800
C3178       C  0.88741997  0.24365736  0.79314303     0.09400
C3179       C  0.86752453  0.22078996  0.79348216    -0.02200
C3180       C  0.84509616  0.22079561  0.80485832    -0.00400
C3181       C  0.84073690  0.24490748  0.81508388    -0.04000
C3182       C  0.86005534  0.26818809  0.81434476     0.03000
C3183       C  0.91223657  0.24366818  0.78153732     0.09800
C3184       C  0.86991498  0.19744368  0.78201118     0.35700
C3185       C  0.85555698  0.29357950  0.82435622     0.39100
C3186       C  0.93550547  0.22299466  0.78250805    -0.04400
C3187       C  0.95989980  0.22464167  0.77238956     0.02800
C3188       C  0.96384460  0.24973741  0.76222729    -0.04000
C3189       C  0.93846249  0.26969823  0.76099540    -0.00200
C3190       C  0.91305658  0.26561639  0.77008135    -0.02800
C3191       C  0.93504820  0.20060969  0.79467159     0.36500
C3192       C  0.93529626  0.29328664  0.74966075     0.40100
C3193       C  0.98151858  0.20084713  0.77405043     0.39200
C3194       C  0.88675199  0.28382190  0.76743680     0.36100
C3195       C  0.90431597  0.29038563  0.80402967     0.36800
C3196       C  0.82820104  0.19494081  0.80687957     0.40100
N3197       N  0.99686354  0.18064254  0.77655242    -0.38000
N3198       N  0.93479270  0.18287367  0.80438331    -0.39600
N3199       N  0.93044508  0.31208436  0.74078713    -0.37300
N3200       N  0.86572142  0.29803743  0.76530356    -0.39700
N3201       N  0.87179160  0.17890438  0.77279947    -0.39500
N3202       N  0.81547984  0.17384245  0.80874022    -0.37100
N3203       N  0.85219790  0.31395969  0.83227598    -0.38200
N3204       N  0.92065839  0.30900289  0.80415455    -0.39800
C3205       C  0.82076591  0.02427643  0.73094700    -0.04800
C3206       C  0.82560873  0.00244566  0.71966432     0.09400
C3207       C  0.80292825  0.48129215  0.71639354    -0.02200
C3208       C  0.77853417  0.47995593  0.72648693    -0.00400
C3209       C  0.77438782  0.00230179  0.73969247    -0.04000
C3210       C  0.79478604  0.02582499  0.73989294     0.03000
C3211       C  0.85112435  0.00421130  0.70861245     0.09800
C3212       C  0.80741028  0.45997806  0.70390950     0.35700
C3213       C  0.78879298  0.05433812  0.74690341     0.39100
C3214       C  0.87420854  0.48648949  0.70975800    -0.04400
C3215       C  0.89898794  0.49031840  0.70033900     0.02800
C3216       C  0.89995717  0.00977776  0.68829463    -0.04000
C3217       C  0.87442007  0.02797415  0.68632413    -0.00200
C3218       C  0.85023281  0.02508348  0.69636265    -0.02800
C3219       C  0.87450942  0.46308519  0.72128083     0.36500
C3220       C  0.87328428  0.05076274  0.67442923     0.40100
C3221       C  0.92507881  0.47241684  0.70339718     0.39200
C3222       C  0.82408643  0.04347423  0.69403790     0.36100
C3223       C  0.84256506  0.04625801  0.73288273     0.36800
C3224       C  0.76052453  0.45495967  0.72426299     0.40100
N3225       N  0.94587304  0.45840987  0.70632830    -0.38000
N3226       N  0.87531625  0.44384749  0.73015016    -0.39600
N3227       N  0.87209929  0.06923047  0.66510301    -0.37300
N3228       N  0.80314352  0.05803114  0.69230717    -0.39700
N3229       N  0.81104844  0.44296007  0.69400593    -0.39500
N3230       N  0.74793962  0.43411971  0.72154956    -0.37100
N3231       N  0.78534775  0.07792159  0.75173678    -0.38200
N3232       N  0.85992029  0.06368960  0.73437726    -0.39800
C3233       C  0.68971507  0.01975233  0.71704882    -0.04800
C3234       C  0.66825875  0.99913123  0.71912162     0.09400
C3235       C  0.67170741  0.47574074  0.73087619    -0.02200
C3236       C  0.69809279  0.47324761  0.73928585    -0.00400
C3237       C  0.71869446  0.49644604  0.73900289    -0.04000
C3238       C  0.71440647  0.01993163  0.72704424     0.03000
C3239       C  0.64247736  0.99829038  0.70827498     0.09800
C3240       C  0.64919417  0.45468317  0.73334698     0.35700
C3241       C  0.73356687  0.04396802  0.72467094     0.39100
C3242       C  0.64303568  0.97833513  0.69568755    -0.04400
C3243       C  0.61848518  0.97597674  0.68595246     0.02800
C3244       C  0.59353358  0.99496302  0.68799565    -0.04000
C3245       C  0.59465986  0.51694756  0.69975887    -0.00200
C3246       C  0.61778625  0.51669017  0.71057058    -0.02800
C3247       C  0.66904320  0.96004531  0.69280764     0.36500
C3248       C  0.57239619  0.54033342  0.70052226     0.40100
C3249       C  0.61857882  0.95284833  0.67432583     0.39200
C3250       C  0.61684555  0.53730039  0.72344705     0.36100
C3251       C  0.68603546  0.04126420  0.70455478     0.36800
C3252       C  0.70453529  0.44420375  0.74551664     0.40100
N3253       N  0.61877544  0.93400217  0.66528348    -0.38000
N3254       N  0.68985607  0.94557134  0.69055102    -0.39600
N3255       N  0.55514370  0.55945320  0.70123218    -0.37300
N3256       N  0.61516347  0.55399644  0.73360599    -0.39700
N3257       N  0.63123633  0.43801426  0.73530095    -0.39500
N3258       N  0.70890536  0.42027253  0.74967242    -0.37100
N3259       N  0.74742409  0.06388547  0.72176337    -0.38200
N3260       N  0.68311990  0.05833103  0.69457094    -0.39800
C3261       C  0.74897804  0.13325561  0.78875488    -0.04800
C3262       C  0.74096929  0.10504781  0.79348336     0.09400
C3263       C  0.73065186  0.10079428  0.80875817    -0.02200
C3264       C  0.73011255  0.12394254  0.81964761    -0.00400
C3265       C  0.74032045  0.15201807  0.81548072    -0.04000
C3266       C  0.74823571  0.15678540  0.79956210     0.03000
C3267       C  0.74244672  0.07944960  0.78243493     0.09800
C3268       C  0.72016484  0.07228690  0.81320096     0.35700
C3269       C  0.75531211  0.18575970  0.79399512     0.39100
C3270       C  0.76464871  0.05770184  0.78398905    -0.04400
C3271       C  0.76491349  0.03197428  0.77469597     0.02800
C3272       C  0.74330481  0.02782717  0.76270607    -0.04000
C3273       C  0.71910172  0.04922294  0.76281216    -0.00200
C3274       C  0.71939672  0.07479847  0.77222554    -0.02800
C3275       C  0.78785213  0.06233503  0.79513928     0.36500
C3276       C  0.69135541  0.04422016  0.75561645     0.40100
C3277       C  0.78915173  0.01127486  0.77731291     0.39200
C3278       C  0.69458517  0.09567480  0.77240908     0.36100
C3279       C  0.75801536  0.13809777  0.77272604     0.36800
C3280       C  0.71743739  0.11846096  0.83484201     0.40100
N3281       N  0.80918542  0.99626940  0.78045321    -0.38000
N3282       N  0.80624067  0.06621705  0.80401852    -0.39600
N3283       N  0.66833539  0.04096856  0.75070062    -0.37300
N3284       N  0.67476159  0.11211092  0.77277267    -0.39700
N3285       N  0.71181367  0.04955282  0.81664555    -0.39500
N3286       N  0.70694885  0.11274105  0.84670291    -0.37100
N3287       N  0.76076063  0.20885407  0.78945775    -0.38200
N3288       N  0.76516613  0.14231813  0.75995908    -0.39800
C3289       C  0.77224218  0.42134298  0.76952243    -0.04800
C3290       C  0.75048998  0.41711718  0.78065619     0.09400
C3291       C  0.72943496  0.43959011  0.78333178    -0.02200
C3292       C  0.72824220  0.46519960  0.77389777    -0.00400
C3293       C  0.74949087  0.46988979  0.76173718    -0.04000
C3294       C  0.77330479  0.44811775  0.76114255     0.03000
C3295       C  0.75184546  0.39060749  0.79109465     0.09800
C3296       C  0.70854994  0.43607645  0.79591991     0.35700
C3297       C  0.80134352  0.45346427  0.75427930     0.39100
C3298       C  0.77167015  0.38937013  0.80366149    -0.04400
C3299       C  0.77116411  0.36619967  0.81458051     0.02800
C3300       C  0.75041614  0.34428390  0.81320870    -0.04000
C3301       C  0.73162137  0.34469811  0.80016064    -0.00200
C3302       C  0.73247432  0.36766876  0.78908636    -0.02800
C3303       C  0.79240967  0.41228039  0.80546258     0.36500
C3304       C  0.71053998  0.32215331  0.79837877     0.40100
C3305       C  0.79251772  0.36486619  0.82702764     0.39200
C3306       C  0.71318393  0.36750317  0.77572344     0.36100
C3307       C  0.79482201  0.39840204  0.76737754     0.36800
C3308       C  0.70340048  0.48512227  0.77656679     0.40100
N3309       N  0.80996665  0.36443574  0.83675335    -0.38000
N3310       N  0.80903161  0.43047223  0.80679015    -0.39600
N3311       N  0.69373363  0.30421742  0.79681340    -0.37300
N3312       N  0.69747217  0.36620164  0.76522243    -0.39700
N3313       N  0.69202938  0.43328758  0.80597601    -0.39500
N3314       N  0.68283106  0.49938526  0.77964992    -0.37100
N3315       N  0.82450698  0.45698257  0.74957118    -0.38200
N3316       N  0.81291305  0.38028309  0.76574846    -0.39800
C3317       C  0.57116397  0.22399896  0.03974144    -0.04800
C3318       C  0.59154394  0.24613826  0.04095830     0.09400
C3319       C  0.58977924  0.27030446  0.03061532    -0.02200
C3320       C  0.56601625  0.27396635  0.02028272    -0.00400
C3321       C  0.54543914  0.25187210  0.01898510    -0.04000
C3322       C  0.54860201  0.22651863  0.02860255     0.03000
C3323       C  0.61217837  0.24614974  0.05451543     0.09800
C3324       C  0.61157712  0.29240018  0.03135691     0.35700
C3325       C  0.52733461  0.20392087  0.02789528     0.39100
C3326       C  0.63603385  0.22578099  0.05533416    -0.04400
C3327       C  0.65415056  0.22490913  0.06864216     0.02800
C3328       C  0.64954164  0.24552957  0.08085376    -0.04000
C3329       C  0.62616287  0.26648080  0.07977517    -0.00200
C3330       C  0.60718276  0.26631675  0.06686025    -0.02800
C3331       C  0.64221132  0.20602420  0.04236965     0.36500
C3332       C  0.62232087  0.28921836  0.09151586     0.40100
C3333       C  0.67694907  0.20210289  0.06995133     0.39200
C3334       C  0.58250588  0.28715144  0.06620350     0.36100
C3335       C  0.57236176  0.19951704  0.05065019     0.36800
C3336       C  0.56095370  0.30226877  0.01286147     0.40100
N3337       N  0.69487913  0.18366756  0.07099082    -0.38000
N3338       N  0.64733291  0.19031933  0.03202533    -0.39600
N3339       N  0.61912574  0.30770441  0.10067828    -0.37300
N3340       N  0.56290766  0.30383334  0.06557080    -0.39700
N3341       N  0.62895986  0.30998462  0.03201831    -0.39500
N3342       N  0.55754435  0.32566437  0.00773454    -0.37100
N3343       N  0.51021405  0.18604883  0.02748384    -0.38200
N3344       N  0.57340185  0.18011807  0.05942509    -0.39800
C3345       C  0.90988852  0.28838240  0.04088980    -0.04800
C3346       C  0.89267616  0.26370361  0.04274587     0.09400
C3347       C  0.89619285  0.23991355  0.03232205    -0.02200
C3348       C  0.91856944  0.23954853  0.02101374    -0.00400
C3349       C  0.93660299  0.26381585  0.01945757    -0.04000
C3350       C  0.93165537  0.28849846  0.02927996     0.03000
C3351       C  0.87224438  0.26187662  0.05634371     0.09800
C3352       C  0.87726399  0.21531332  0.03364430     0.35700
C3353       C  0.95015297  0.31343613  0.02810485     0.39100
C3354       C  0.84649086  0.27957447  0.05676108    -0.04400
C3355       C  0.82808427  0.27885625  0.06991791     0.02800
C3356       C  0.83400908  0.25889214  0.08234336    -0.04000
C3357       C  0.85985872  0.24102090  0.08186690    -0.00200
C3358       C  0.87910004  0.24289499  0.06904178    -0.02800
C3359       C  0.83891369  0.29860554  0.04360881     0.36500
C3360       C  0.86662681  0.22023394  0.09433482     0.40100
C3361       C  0.80435756  0.30047359  0.07110503     0.39200
C3362       C  0.90604090  0.22521275  0.06886675     0.36100
C3363       C  0.90586664  0.31331185  0.05130087     0.36800
C3364       C  0.92448887  0.21287361  0.01223556     0.40100
N3365       N  0.78618969  0.31862663  0.07190710    -0.38000
N3366       N  0.83285532  0.31379062  0.03313609    -0.39600
N3367       N  0.87251256  0.20347274  0.10413623    -0.37300
N3368       N  0.92749942  0.21108366  0.06864870    -0.39700
N3369       N  0.86210966  0.19577717  0.03476757    -0.39500
N3370       N  0.92852684  0.19079478  0.00580114    -0.37100
N3371       N  0.96500389  0.33326297  0.02730383    -0.38200
N3372       N  0.90248626  0.33328632  0.05952395    -0.39800
C3373       C  0.57565032  0.27714078  0.96353281    -0.04800
C3374       C  0.58738269  0.24908295  0.95943913     0.09400
C3375       C  0.57743182  0.22403606  0.96725277    -0.02200
C3376       C  0.55634584  0.22709695  0.97924573    -0.00400
C3377       C  0.54387293  0.25508251  0.98292951    -0.04000
C3378       C  0.55291762  0.27992462  0.97454838     0.03000
C3379       C  0.60834604  0.24600908  0.94598027     0.09800
C3380       C  0.58750194  0.19500781  0.96222059     0.35700
C3381       C  0.53718972  0.30798302  0.97621903     0.39100
C3382       C  0.63765459  0.23720852  0.94848842    -0.04400
C3383       C  0.65742503  0.23559777  0.93582178     0.02800
C3384       C  0.64873175  0.24534498  0.92059557    -0.04000
C3385       C  0.61897700  0.25384328  0.91821015    -0.00200
C3386       C  0.59886099  0.25277943  0.93066033    -0.02800
C3387       C  0.64761271  0.23009962  0.96420813     0.36500
C3388       C  0.60865911  0.26500953  0.90322463     0.40100
C3389       C  0.68645037  0.22312827  0.93867689     0.39200
C3390       C  0.56811156  0.25867420  0.92771728     0.36100
C3391       C  0.58622006  0.30314466  0.95591780     0.36800
C3392       C  0.54564230  0.20114122  0.98678646     0.40100
N3393       N  0.70940887  0.21297129  0.94122037    -0.38000
N3394       N  0.65560296  0.22438156  0.97672430    -0.39600
N3395       N  0.59989454  0.27412248  0.89141678    -0.37300
N3396       N  0.54357913  0.26316815  0.92538866    -0.39700
N3397       N  0.59544536  0.17190277  0.95806989    -0.39500
N3398       N  0.53709770  0.18024019  0.99262127    -0.37100
N3399       N  0.52442927  0.33028771  0.97734998    -0.38200
N3400       N  0.59463068  0.32384681  0.94981181    -0.39800
C3401       C  0.90039100  0.29368055  0.96907848    -0.04800
C3402       C  0.89223303  0.26872528  0.96069718     0.09400
C3403       C  0.90562212  0.24108119  0.96406012    -0.02200
C3404       C  0.92911197  0.23889214  0.97452777    -0.00400
C3405       C  0.93670095  0.26355637  0.98343584    -0.04000
C3406       C  0.92216774  0.29100143  0.98066241     0.03000
C3407       C  0.87201705  0.27166206  0.94706846     0.09800
C3408       C  0.89579223  0.21503755  0.95626434     0.35700
C3409       C  0.93185806  0.31715077  0.98833131     0.39100
C3410       C  0.88311189  0.26850548  0.93177526    -0.04400
C3411       C  0.86410239  0.26621221  0.91894900     0.02800
C3412       C  0.83342240  0.26895448  0.92119511    -0.04000
C3413       C  0.82286029  0.27610985  0.93650954    -0.00200
C3414       C  0.84197004  0.27593188  0.94939468    -0.02800
C3415       C  0.91438267  0.26695454  0.92935228     0.36500
C3416       C  0.79243582  0.28381461  0.93938504     0.40100
C3417       C  0.87676627  0.26017208  0.90368086     0.39200
C3418       C  0.83065729  0.27907873  0.96519507     0.36100
C3419       C  0.88758768  0.32234325  0.96510886     0.36800
C3420       C  0.94739656  0.21218838  0.97472784     0.40100
N3421       N  0.88725067  0.25534415  0.89159577    -0.38000
N3422       N  0.93931194  0.26582914  0.92753134    -0.39600
N3423       N  0.76833018  0.29003979  0.94206077    -0.37300
N3424       N  0.82175452  0.28140964  0.97781765    -0.39700
N3425       N  0.88763637  0.19436346  0.95010161    -0.39500
N3426       N  0.96231309  0.19112535  0.97456260    -0.37100
N3427       N  0.93957076  0.33840060  0.99408704    -0.38200
N3428       N  0.87744940  0.34520665  0.96187367    -0.39800
C3429       C  0.87458623  0.02291735  0.29213133    -0.04800
C3430       C  0.85646790  0.99870450  0.29076269     0.09400
C3431       C  0.86106953  0.47587284  0.30186498    -0.02200
C3432       C  0.88440356  0.47519861  0.31254042    -0.00400
C3433       C  0.90246434  0.99771636  0.31289147    -0.04000
C3434       C  0.89632457  0.02301497  0.30375794     0.03000
C3435       C  0.83105277  0.99975785  0.27962079     0.09800
C3436       C  0.84120395  0.45197964  0.30180390     0.35700
C3437       C  0.90986281  0.05019722  0.30764304     0.39100
C3438       C  0.82939102  0.48018943  0.26848289    -0.04400
C3439       C  0.80387270  0.47833418  0.25925637     0.02800
C3440       C  0.77928068  0.99788945  0.26035993    -0.04000
C3441       C  0.78374296  0.02113362  0.27149425    -0.00200
C3442       C  0.80787999  0.02022826  0.28175982    -0.02800
C3443       C  0.85449127  0.46043890  0.26563088     0.36500
C3444       C  0.76266353  0.04508936  0.27411618     0.40100
C3445       C  0.80574089  0.45611111  0.24715265     0.39200
C3446       C  0.80773763  0.03900946  0.29550759     0.36100
C3447       C  0.87044588  0.04807088  0.28182272     0.36800
C3448       C  0.89014742  0.44931909  0.32216549     0.40100
N3449       N  0.80912166  0.43838982  0.23756664    -0.38000
N3450       N  0.87441814  0.44469417  0.26340759    -0.39600
N3451       N  0.74773928  0.06520163  0.27735584    -0.37300
N3452       N  0.80750920  0.05361842  0.30656003    -0.39700
N3453       N  0.82536654  0.43291450  0.30180921    -0.39500
N3454       N  0.89487241  0.42866759  0.32980010    -0.37100
N3455       N  0.92001359  0.07202976  0.31114936    -0.38200
N3456       N  0.86706324  0.06817794  0.27363066    -0.39800
C3457       C  0.62576771  0.46770795  0.29432165    -0.04800
C3458       C  0.64332969  0.99188805  0.29240733     0.09400
C3459       C  0.63587913  0.01768994  0.30090559    -0.02200
C3460       C  0.61183032  0.01851926  0.31118372    -0.00400
C3461       C  0.59474143  0.99372133  0.31302472    -0.04000
C3462       C  0.60130315  0.46893390  0.30436891     0.03000
C3463       C  0.67000913  0.99062917  0.28207096     0.09800
C3464       C  0.65334315  0.04331147  0.29939279     0.35700
C3465       C  0.58357438  0.44353313  0.30601023     0.39100
C3466       C  0.66748974  0.99084587  0.26573926    -0.04400
C3467       C  0.69250733  0.99167718  0.25598653     0.02800
C3468       C  0.72151877  0.99332208  0.26238853    -0.04000
C3469       C  0.72335838  0.49035438  0.28009426    -0.00200
C3470       C  0.69799883  0.48950036  0.28948445    -0.02800
C3471       C  0.63852037  0.99188852  0.25895479     0.36500
C3472       C  0.74991059  0.48303754  0.28861495     0.40100
C3473       C  0.68672861  0.99359544  0.23935138     0.39200
C3474       C  0.70029203  0.48652894  0.30643751     0.36100
C3475       C  0.63304179  0.44106330  0.28568466     0.36800
C3476       C  0.60449568  0.04512318  0.31982782     0.40100
N3477       N  0.67945430  0.99529810  0.22641700    -0.38000
N3478       N  0.61535417  0.99272765  0.25369916    -0.39600
N3479       N  0.76985174  0.47630459  0.29625484    -0.37300
N3480       N  0.70215928  0.48432737  0.31989555    -0.39700
N3481       N  0.66719255  0.06385944  0.29844403    -0.39500
N3482       N  0.59870725  0.06641509  0.32667432    -0.37100
N3483       N  0.56957961  0.42314883  0.30729205    -0.38200
N3484       N  0.63884514  0.41984484  0.27875647    -0.39800
C3485       C  0.77155933  0.06181735  0.22226838    -0.04800
C3486       C  0.74750285  0.08160440  0.22258932     0.09400
C3487       C  0.72499898  0.07675518  0.23321772    -0.02200
C3488       C  0.72562157  0.05152286  0.24306896    -0.00400
C3489       C  0.74833651  0.02860689  0.24171859    -0.04000
C3490       C  0.77240573  0.03606806  0.23166525     0.03000
C3491       C  0.74579511  0.10733418  0.21140363     0.09800
C3492       C  0.70101312  0.09851031  0.23414085     0.35700
C3493       C  0.79768285  0.01668833  0.22916278     0.39100
C3494       C  0.72617752  0.10749920  0.19870448    -0.04400
C3495       C  0.72619392  0.13019567  0.18745156     0.02800
C3496       C  0.74568477  0.15326749  0.18873642    -0.04000
C3497       C  0.76451154  0.15382247  0.20181126    -0.00200
C3498       C  0.76453645  0.13096056  0.21307807    -0.02800
C3499       C  0.70547763  0.08453440  0.19723910     0.36500
C3500       C  0.78445255  0.17738624  0.20355070     0.40100
C3501       C  0.70495627  0.13046047  0.17491084     0.39200
C3502       C  0.78395430  0.13159248  0.22641994     0.36100
C3503       C  0.79497584  0.06709373  0.21126028     0.36800
C3504       C  0.70373533  0.05242623  0.25523612     0.40100
N3505       N  0.68772001  0.13071420  0.16507154    -0.38000
N3506       N  0.68841840  0.06674358  0.19600469    -0.39600
N3507       N  0.80046875  0.19603946  0.20517281    -0.37300
N3508       N  0.79948849  0.13185047  0.23704725    -0.39700
N3509       N  0.68187168  0.11573227  0.23477018    -0.39500
N3510       N  0.68604177  0.05526587  0.26480300    -0.37100
N3511       N  0.81888257  0.00356103  0.22593560    -0.38200
N3512       N  0.81357253  0.07127671  0.20251300    -0.39800
C3513       C  0.71685733  0.37618203  0.20934826    -0.04800
C3514       C  0.74219659  0.39269189  0.20979859     0.09400
C3515       C  0.76581214  0.38469180  0.19989973    -0.02200
C3516       C  0.76339784  0.36170541  0.18900733    -0.00400
C3517       C  0.73799833  0.34537841  0.18847282    -0.04000
C3518       C  0.71523863  0.35189996  0.19915204     0.03000
C3519       C  0.74352096  0.41932279  0.22018703     0.09800
C3520       C  0.79260781  0.40021197  0.20086238     0.35700
C3521       C  0.69016202  0.33375775  0.19965185     0.39100
C3522       C  0.74536830  0.41636192  0.23645264    -0.04400
C3523       C  0.74624620  0.44139472  0.24627539     0.02800
C3524       C  0.74689713  0.47097594  0.24000746    -0.04000
C3525       C  0.74285687  0.47297235  0.22314852    -0.00200
C3526       C  0.74179946  0.44751167  0.21364654    -0.02800
C3527       C  0.74758050  0.38692743  0.24311167     0.36500
C3528       C  0.73639300  0.50004964  0.21471907     0.40100
C3529       C  0.74897860  0.43486806  0.26280967     0.39200
C3530       C  0.73757010  0.45020962  0.19679812     0.36100
C3531       C  0.69207831  0.38492971  0.21900151     0.36800
C3532       C  0.78730668  0.35443006  0.17843525     0.40100
N3533       N  0.75137163  0.42630614  0.27551961    -0.38000
N3534       N  0.74940945  0.36354376  0.24842537    -0.39600
N3535       N  0.73037074  0.52038136  0.20706432    -0.37300
N3536       N  0.73411828  0.45236280  0.18342913    -0.39700
N3537       N  0.81409731  0.41243305  0.20158080    -0.39500
N3538       N  0.80619081  0.34841425  0.16993369    -0.37100
N3539       N  0.67029250  0.31908476  0.20036375    -0.38200
N3540       N  0.67241894  0.39226216  0.22670262    -0.39800
C3541       C  0.74908969  0.99741690  0.25086299    -0.01800
C3542       C  0.96568504  0.75892503  0.99332219     0.03000
C3543       C  0.96640043  0.76079797  0.00988894     0.02900
C3544       C  0.99346482  0.75845031  0.01747565    -0.17600
C3545       C  0.51705690  0.76288353  0.01024897     0.03000
C3546       C  0.51743427  0.76475899  0.99370414     0.02900
C3547       C  0.99194726  0.75554688  0.98505802    -0.17600
H3548       H  0.99137494  0.75469182  0.97237400     0.05000
H3549       H  0.99405635  0.75931417  0.03015415     0.05000
C3550       C  0.74643713  0.00009331  0.75110033    -0.01800
C3551       C  0.99263308  0.75244710  0.75280574    -0.01800
C3552       C  0.75140463  0.97376202  0.99269261     0.03000
C3553       C  0.75203587  0.97268507  0.00924261     0.02900
C3554       C  0.75678733  0.99844023  0.01756458    -0.17600
C3555       C  0.76236103  0.52595278  0.01042043     0.03000
C3556       C  0.76190709  0.52679307  0.99390310     0.02900
C3557       C  0.75530534  0.00064240  0.98508939    -0.17600
H3558       H  0.75475825  0.00149395  0.97240378     0.05000
H3559       H  0.75704889  0.99769588  0.03025581     0.05000
O3560       O  0.82105809  0.76092660  0.89420287    -0.74600
O3561       O  0.78509771  0.75848018  0.91218500    -0.53500
C3562       C  0.81178507  0.76210347  0.90844588     0.79100
O3563       O  0.74366683  0.83028080  0.83925557    -0.59200
O3564       O  0.74514744  0.79304772  0.82140178    -0.52200
C3565       C  0.74557657  0.82046220  0.82517330     0.71100
O3566       O  0.73715117  0.83409436  0.89210074    -0.73800
O3567       O  0.73766465  0.79832626  0.91080742    -0.54300
C3568       C  0.73684556  0.82527081  0.90647335     0.77100
O3569       O  0.82433323  0.74722969  0.84192727    -0.58900
O3570       O  0.78961927  0.74377938  0.82300724    -0.52000
C3571       C  0.81627739  0.74490932  0.82758724     0.73700
Zr3572     Zr  0.80263762  0.75051206  0.86790431     2.54700
O3573       O  0.84001875  0.78648483  0.86574459    -0.79500
O3574       O  0.83852523  0.71030555  0.87132018    -0.92900
Zr3575     Zr  0.73879600  0.81184426  0.86589259     2.64700
O3576       O  0.77197512  0.85182330  0.86734081    -0.97800
O3577       O  0.69724624  0.84615076  0.86286133    -0.79900
O3578       O  0.77083894  0.78303459  0.88184113    -0.83300
O3579       O  0.77169411  0.78017426  0.85171015    -2.18000
O3580       O  0.74596295  0.66573877  0.84329340    -0.66700
O3581       O  0.74183499  0.69971306  0.82393420    -0.51200
C3582       C  0.74365508  0.67280438  0.82875363     0.72100
O3583       O  0.65998975  0.74712877  0.89332572    -0.59600
O3584       O  0.69575415  0.75188545  0.91131245    -0.51500
C3585       C  0.66899128  0.74903468  0.90757182     0.73900
O3586       O  0.66077450  0.75290767  0.84037680    -0.71000
O3587       O  0.69716480  0.75012738  0.82212998    -0.49600
C3588       C  0.67011282  0.75239839  0.82614948     0.75300
O3589       O  0.74701190  0.67066388  0.89595271    -0.66300
O3590       O  0.74574664  0.70905668  0.91303188    -0.53500
C3591       C  0.74752925  0.68154124  0.90986526     0.73700
Zr3592     Zr  0.74391773  0.68896807  0.86894256     2.77500
O3593       O  0.70241557  0.65774708  0.87087886    -0.97000
O3594       O  0.77896787  0.64753861  0.86954361    -0.77900
Zr3595     Zr  0.68072233  0.75045802  0.86689635     2.70100
O3596       O  0.64394361  0.71369722  0.86567842    -0.79100
O3597       O  0.64529984  0.79148707  0.86819772    -0.98200
Zr3598     Zr  0.74112646  0.75263169  0.89708001     2.21500
Zr3599     Zr  0.74288295  0.74770935  0.83681320     2.11100
O3600       O  0.71253042  0.71813886  0.85259074    -2.46900
O3601       O  0.71144248  0.72037259  0.88310603    -0.78900
O3602       O  0.77427427  0.71801549  0.85317120    -0.71100
O3603       O  0.70881501  0.78276455  0.88161063    -2.32000
O3604       O  0.77392351  0.72010790  0.88346569    -2.28300
O3605       O  0.71020925  0.78003495  0.85096806    -0.72900
H3606       H  0.78379740  0.79150295  0.84499442     0.79100
H3607       H  0.69607154  0.79511637  0.88810985     0.80200
H3608       H  0.70096876  0.70565029  0.84609883     0.82500
H3609       H  0.78651128  0.70891988  0.89060494     0.80100
H3610       H  0.68987271  0.84949267  0.87362042     0.43100
H3611       H  0.65437877  0.80746198  0.86233352     0.42100
H3612       H  0.65187711  0.69726119  0.87219371     0.41700
H3613       H  0.69634564  0.65438546  0.85994721     0.39700
H3614       H  0.79426651  0.65360341  0.87684333     0.42800
H3615       H  0.85659488  0.71773490  0.86676020     0.37600
H3616       H  0.83186808  0.80396297  0.87132437     0.43700
H3617       H  0.79056697  0.84339760  0.86321164     0.40100
H3618       H  0.71074732  0.63854758  0.87448056     0.45000
H3619       H  0.83251925  0.69509967  0.86387955     0.43800
H3620       H  0.76508489  0.86634865  0.85940481     0.43900
H3621       H  0.62904590  0.78565457  0.86147415     0.44300
O3622       O  0.82029366  0.75458252  0.16291905    -0.74600
O3623       O  0.78415707  0.74970943  0.18094683    -0.53500
C3624       C  0.81106360  0.75180784  0.17708834     0.79100
O3625       O  0.72559915  0.83176207  0.10908146    -0.59200
O3626       O  0.73561889  0.79610028  0.09114774    -0.52200
C3627       C  0.72879088  0.82281836  0.09480952     0.71100
O3628       O  0.73460479  0.83045882  0.16214291    -0.73800
O3629       O  0.73755026  0.79381962  0.18049252    -0.54300
C3630       C  0.73669723  0.82097842  0.17630855     0.77100
O3631       O  0.82282540  0.76008408  0.10986850    -0.58900
O3632       O  0.78731386  0.75687275  0.09146788    -0.52000
C3633       C  0.81392890  0.75973503  0.09554103     0.73700
Zr3634     Zr  0.80121073  0.75650069  0.13617252     2.54700
O3635       O  0.82962787  0.80013762  0.13842179    -0.79500
O3636       O  0.84431693  0.72429723  0.13404421    -0.92900
Zr3637     Zr  0.73179686  0.81101898  0.13567728     2.64700
O3638       O  0.76618561  0.85010856  0.13563165    -0.97800
O3639       O  0.68926242  0.84435571  0.13778453    -0.79900
O3640       O  0.76574525  0.78308938  0.15112436    -0.83300
O3641       O  0.76781120  0.78514227  0.12081268    -2.18000
O3642       O  0.76112837  0.67064509  0.10859467    -0.66700
O3643       O  0.75036964  0.70651806  0.09090298    -0.51200
C3644       C  0.75862932  0.68010440  0.09439894     0.72100
O3645       O  0.65829164  0.74298009  0.16071531    -0.59600
O3646       O  0.69303677  0.74584153  0.17965811    -0.51500
C3647       C  0.66641756  0.74439320  0.17510513     0.73900
O3648       O  0.66160902  0.74631730  0.10778678    -0.71000
O3649       O  0.69893618  0.74801823  0.09028026    -0.49600
C3650       C  0.67183669  0.74746503  0.09373650     0.75300
O3651       O  0.74980388  0.66655804  0.16143672    -0.66300
O3652       O  0.74380155  0.70215013  0.18005487    -0.53500
C3653       C  0.74725469  0.67518534  0.17576207     0.73700
Zr3654     Zr  0.74957665  0.68827492  0.13509487     2.77500
O3655       O  0.71336850  0.65114351  0.13242994    -0.97000
O3656       O  0.78873745  0.65088218  0.13681070    -0.77900
Zr3657     Zr  0.68043165  0.74302905  0.13468315     2.70100
O3658       O  0.65253906  0.69888755  0.13331605    -0.79100
O3659       O  0.63638169  0.77431052  0.13582463    -0.98200
Zr3660     Zr  0.73945052  0.74831720  0.16575550     2.21500
Zr3661     Zr  0.74238134  0.75088292  0.10574672     2.11100
O3662       O  0.71530792  0.71562111  0.11960833    -2.46900
O3663       O  0.71388114  0.71453845  0.15022136    -0.78900
O3664       O  0.77672889  0.72239819  0.12068229    -0.71100
O3665       O  0.70522947  0.77690256  0.15042985    -2.32000
O3666       O  0.77533871  0.72128425  0.15074245    -2.28300
O3667       O  0.70618250  0.77792145  0.12013922    -0.72900
H3668       H  0.77793851  0.79865356  0.11421505     0.79100
H3669       H  0.69160311  0.78773815  0.15711377     0.80200
H3670       H  0.70573698  0.70286698  0.11245367     0.82500
H3671       H  0.78846457  0.71003307  0.15740764     0.80100
H3672       H  0.68037793  0.83963999  0.14799742     0.43100
H3673       H  0.64213912  0.79325059  0.13133757     0.42100
H3674       H  0.63213283  0.70596633  0.13490876     0.41700
H3675       H  0.70944944  0.65004931  0.12106859     0.39700
H3676       H  0.80645737  0.66203227  0.13848249     0.42800
H3677       H  0.83825842  0.70524657  0.13823131     0.37600
H3678       H  0.81569767  0.81550075  0.14236813     0.43700
H3679       H  0.77305903  0.85146374  0.12468995     0.40100
H3680       H  0.72398372  0.63239661  0.13493769     0.45000
H3681       H  0.85811583  0.73171460  0.14180989     0.43800
H3682       H  0.75414297  0.86827061  0.13741690     0.43900
H3683       H  0.62302444  0.76616662  0.12804368     0.44300
O3684       O  0.98935102  0.91978842  0.66377031    -0.74600
O3685       O  0.99476405  0.95653235  0.68158706    -0.53500
C3686       C  0.99125911  0.92956074  0.67785856     0.79100
O3687       O  0.57812233  0.49530893  0.60888031    -0.59200
O3688       O  0.54137899  0.49452116  0.59109952    -0.52200
C3689       C  0.56851286  0.49442859  0.59471052     0.71100
O3690       O  0.57908665  0.49487936  0.66140023    -0.73800
O3691       O  0.54409849  0.49994938  0.68027070    -0.54300
C3692       C  0.57081091  0.49687238  0.67572744     0.77100
O3693       O  0.99162182  0.91646623  0.61055388    -0.58900
O3694       O  0.99565235  0.95231235  0.59209544    -0.52000
C3695       C  0.99324618  0.92535716  0.59619823     0.73700
Zr3696     Zr  0.99197760  0.93854768  0.63691420     2.49500
O3697       O  0.52133125  0.89722175  0.63704840    -0.79500
O3698       O  0.94950169  0.90841603  0.63670445    -0.92900
Zr3699     Zr  0.55774784  0.49498256  0.63553620     2.64700
O3700       O  0.58781152  0.94969074  0.63577804    -0.97800
O3701       O  0.59949124  0.52602714  0.63577477    -0.79900
O3702       O  0.52458612  0.96844508  0.65090467    -0.83300
O3703       O  0.52496349  0.96755324  0.62053283    -2.18000
O3704       O  0.91352723  0.51138087  0.60923705    -0.66700
O3705       O  0.95027038  0.50635684  0.59139196    -0.51200
C3706       C  0.92323852  0.50957018  0.59508291     0.72100
O3707       O  0.99995998  0.58542388  0.66147660    -0.59600
O3708       O  0.99702500  0.54994509  0.68022368    -0.51500
C3709       C  0.99859310  0.57695881  0.67587022     0.73900
O3710       O  0.00581251  0.58286737  0.60862019    -0.71000
O3711       O  0.99979054  0.54617756  0.59107569    -0.49600
C3712       C  0.00422844  0.57307186  0.59451135     0.75300
O3713       O  0.91332860  0.51277181  0.66172258    -0.66300
O3714       O  0.94867646  0.50844121  0.68036149    -0.53500
C3715       C  0.92183234  0.51126128  0.67603989     0.73700
Zr3716     Zr  0.93446517  0.51130384  0.63565878     2.77500
O3717       O  0.90610617  0.55757653  0.63601424    -0.97000
O3718       O  0.89716719  0.97439745  0.63655189    -0.77900
Zr3719     Zr  0.00104854  0.56351209  0.63529577     2.70100
O3720       O  0.96560097  0.60449838  0.63410226    -0.79100
O3721       O  0.53774242  0.59918708  0.63524262    -0.98200
Zr3722     Zr  0.99494848  0.50346090  0.66624124     2.21500
Zr3723     Zr  0.99521759  0.50146167  0.60602473     2.11100
O3724       O  0.96740789  0.53754596  0.62022649    -2.46900
O3725       O  0.96738797  0.53811620  0.65080377    -0.78900
O3726       O  0.96418356  0.97198775  0.62108373    -0.71100
O3727       O  0.52990722  0.53000158  0.65055801    -2.32000
O3728       O  0.96415228  0.97381981  0.65160292    -2.28300
O3729       O  0.52960823  0.52874289  0.62027284    -0.72900
H3730       H  0.53575940  0.95400726  0.61391545     0.79100
H3731       H  0.54268002  0.54125096  0.65691854     0.80200
H3732       H  0.95699412  0.55077433  0.61324952     0.82500
H3733       H  0.95105656  0.96375367  0.65843206     0.80100
H3734       H  0.61652672  0.51209506  0.63513075     0.43100
H3735       H  0.55185392  0.59256878  0.62711351     0.42100
H3736       H  0.97583370  0.62126697  0.63851296     0.41700
H3737       H  0.91336310  0.56898577  0.62705834     0.39700
H3738       H  0.87962259  0.98723898  0.63834849     0.42800
H3739       H  0.93609366  0.91757298  0.64451174     0.37600
H3740       H  0.54039472  0.90361989  0.64077347     0.43700
H3741       H  0.57868974  0.93647932  0.62822898     0.40100
H3742       H  0.88631693  0.55229620  0.63287485     0.45000
H3743       H  0.95624818  0.88961194  0.64156779     0.43800
H3744       H  0.60620872  0.95498248  0.63069213     0.43900
H3745       H  0.52802325  0.61714171  0.63082592     0.44300
O3746       O  0.57996068  0.49726629  0.33962196    -0.74600
O3747       O  0.54490980  0.49364166  0.32088723    -0.53500
C3748       C  0.57158256  0.49485685  0.32536212     0.79100
O3749       O  0.00075862  0.91876328  0.39299129    -0.59200
O3750       O  0.99956217  0.95686238  0.41017260    -0.52200
C3751       C  0.00052151  0.92933637  0.40695499     0.71100
O3752       O  0.00066299  0.91568444  0.34023495    -0.73800
O3753       O  0.99903564  0.95090170  0.32123909    -0.54300
C3754       C  0.99965398  0.92393076  0.32579818     0.77100
O3755       O  0.57854363  0.50188320  0.39225698    -0.58900
O3756       O  0.54151282  0.50203127  0.40988268    -0.52000
C3757       C  0.56866623  0.50240092  0.40640048     0.73700
Zr3758     Zr  0.55876019  0.49873250  0.36565121     2.54700
O3759       O  0.59340593  0.95116512  0.36560794    -0.79500
O3760       O  0.59722508  0.53380676  0.36618559    -0.92900
Zr3761     Zr  0.00079739  0.93790375  0.36625344     2.64700
O3762       O  0.53758564  0.89998638  0.36869200    -0.97800
O3763       O  0.96442027  0.90069858  0.36584729    -0.79900
O3764       O  0.52995709  0.96499343  0.35132279    -0.83300
O3765       O  0.53032049  0.96626681  0.38191649    -2.18000
O3766       O  0.99746566  0.58028767  0.39135785    -0.66700
O3767       O  0.99821884  0.54378683  0.40964970    -0.51200
C3768       C  0.99811020  0.57090805  0.40561111     0.72100
O3769       O  0.91613569  0.49809001  0.34045601    -0.59600
O3770       O  0.95176809  0.50006599  0.32184982    -0.51500
C3771       C  0.92493945  0.49952159  0.32620740     0.73900
O3772       O  0.91828417  0.49111154  0.39318148    -0.71000
O3773       O  0.95418890  0.49758803  0.41082025    -0.49600
C3774       C  0.92756447  0.49329759  0.40735693     0.75300
O3775       O  0.99967392  0.57830592  0.33846535    -0.66300
O3776       O  0.00126806  0.54135393  0.32055821    -0.53500
C3777       C  0.00169762  0.56868832  0.32429861     0.73700
Zr3778     Zr  0.99528657  0.55880904  0.36512841     2.77500
O3779       O  0.95166718  0.59074550  0.36392040    -0.97000
O3780       O  0.53274050  0.59809327  0.36459503    -0.77900
Zr3781     Zr  0.93719319  0.49734290  0.36649408     2.70100
O3782       O  0.90252917  0.53890673  0.36857314    -0.79100
O3783       O  0.89760571  0.96579937  0.36446529    -0.98200
Zr3784     Zr  0.99819774  0.49635354  0.33578595     2.21500
Zr3785     Zr  0.99843345  0.49827094  0.39559713     2.11100
O3786       O  0.96575656  0.52942282  0.38104644    -2.46900
O3787       O  0.96569475  0.52782249  0.35040501    -0.78900
O3788       O  0.52741368  0.53150974  0.37980834    -0.71100
O3789       O  0.96870609  0.96757682  0.35068776    -2.32000
O3790       O  0.52821400  0.52947321  0.34963283    -2.28300
O3791       O  0.96820613  0.96888511  0.38087142    -0.72900
H3792       H  0.54171389  0.95399786  0.38894759     0.79100
H3793       H  0.95719547  0.95515095  0.34421601     0.80200
H3794       H  0.95355154  0.54151346  0.38785839     0.82500
H3795       H  0.54032528  0.54083203  0.34286021     0.80100
H3796       H  0.97572057  0.88193973  0.36442520     0.43100
H3797       H  0.90186844  0.95155758  0.37300385     0.42100
H3798       H  0.90327010  0.54875553  0.35824979     0.41700
H3799       H  0.95895605  0.61085455  0.36439789     0.39700
H3800       H  0.55083073  0.58696481  0.36754516     0.42800
H3801       H  0.59045494  0.54975817  0.35904118     0.37600
H3802       H  0.58749195  0.93922890  0.37466921     0.43700
H3803       H  0.54558694  0.90158728  0.37938479     0.40100
H3804       H  0.94456189  0.58880129  0.35305843     0.45000
H3805       H  0.61382846  0.52393141  0.36068173     0.43800
H3806       H  0.52748025  0.88123175  0.36878555     0.43900
H3807       H  0.88029449  0.97747901  0.36810364     0.44300
C3808       C  0.49104143  0.77612504  0.50964151     0.03000
C3809       C  0.48987548  0.77681141  0.49310502     0.02900
C3810       C  0.48877064  0.75038678  0.48485809    -0.17600
C3811       C  0.49132160  0.72311871  0.49233525     0.03000
C3812       C  0.49464241  0.72232127  0.50878564     0.02900
C3813       C  0.49331584  0.74878582  0.51715676    -0.17600
H3814       H  0.49481437  0.74809727  0.52982452     0.05000
H3815       H  0.48722063  0.75107901  0.47218600     0.05000
C3816       C  0.77578990  0.99942900  0.50959537     0.03000
C3817       C  0.77614336  0.99935475  0.49301586     0.02900
C3818       C  0.74965850  0.99917129  0.48501776    -0.17600
C3819       C  0.72293436  0.99798677  0.49281377     0.03000
C3820       C  0.72256327  0.99591762  0.50935907     0.02900
C3821       C  0.74906270  0.99706874  0.51739898    -0.17600
H3822       H  0.74887410  0.99634473  0.53008992     0.05000
H3823       H  0.74986355  0.99970657  0.47231724     0.05000
C3824       C  0.98918045  0.74845726  0.25039429    -0.01800
C3825       C  0.97713584  0.88014467  0.28990869    -0.04800
C3826       C  0.99339846  0.85355985  0.29206038     0.09400
C3827       C  0.01344650  0.85097258  0.30451179    -0.02200
C3828       C  0.01598476  0.87414367  0.31527744    -0.00400
C3829       C  0.99859897  0.90038358  0.31365810    -0.04000
C3830       C  0.97965686  0.90344493  0.30061543     0.03000
C3831       C  0.99082368  0.82889850  0.28059091     0.09800
C3832       C  0.03222631  0.82475275  0.30596744     0.35700
C3833       C  0.46078447  0.93070735  0.29937572     0.39100
C3834       C  0.51259720  0.82523733  0.26990950    -0.04400
C3835       C  0.51063122  0.80266774  0.25871098     0.02800
C3836       C  0.98895172  0.77874671  0.26009757    -0.04000
C3837       C  0.96517620  0.78676359  0.27048874    -0.00200
C3838       C  0.96647885  0.81133178  0.28061872    -0.02800
C3839       C  0.53696160  0.84461367  0.26963193     0.36500
C3840       C  0.94003499  0.76883364  0.27216907     0.40100
C3841       C  0.52859133  0.80653731  0.24496097     0.39200
C3842       C  0.94347887  0.81756763  0.29192619     0.36100
C3843       C  0.45809076  0.88492082  0.27696669     0.36800
C3844       C  0.03760188  0.87129257  0.32758407     0.40100
N3845       N  0.54287170  0.81116193  0.23414590    -0.38000
N3846       N  0.55638680  0.85993752  0.26953096    -0.39600
N3847       N  0.91950451  0.75549469  0.27418734    -0.37300
N3848       N  0.92529806  0.82266626  0.30099555    -0.39700
N3849       N  0.04762015  0.80413523  0.30705206    -0.39500
N3850       N  0.05505271  0.86882345  0.33727814    -0.37100
N3851       N  0.44656151  0.95193439  0.29749833    -0.38200
N3852       N  0.44323941  0.88797812  0.26612488    -0.39800
C3853       C  0.02219138  0.63856111  0.30268221    -0.04800
C3854       C  0.00317475  0.63856854  0.28970728     0.09400
C3855       C  0.98714249  0.61327780  0.28688200    -0.02200
C3856       C  0.98936300  0.58896969  0.29722452    -0.00400
C3857       C  0.00469126  0.59107407  0.31153084    -0.04000
C3858       C  0.02208188  0.61565821  0.31382721     0.03000
C3859       C  0.99929010  0.66585749  0.27968616     0.09800
C3860       C  0.96754237  0.61247853  0.27363747     0.35700
C3861       C  0.04080739  0.61735369  0.32738869     0.39100
C3862       C  0.50626413  0.66717627  0.26256721    -0.04400
C3863       C  0.50046596  0.69287136  0.25354312     0.02800
C3864       C  0.99350318  0.71965246  0.26133186    -0.04000
C3865       C  0.99175783  0.71925520  0.27823519    -0.00200
C3866       C  0.98990589  0.69253635  0.28654733    -0.02800
C3867       C  0.51890851  0.64082348  0.25531807     0.36500
C3868       C  0.99641913  0.74417540  0.28818986     0.40100
C3869       C  0.49910311  0.68826221  0.23680605     0.39200
C3870       C  0.97934212  0.69270042  0.30261073     0.36100
C3871       C  0.04164176  0.66255548  0.30473867     0.36800
C3872       C  0.97614106  0.56183781  0.29289487     0.40100
N3873       N  0.49818870  0.68207407  0.22369905    -0.38000
N3874       N  0.52916067  0.61986413  0.24960538    -0.39600
N3875       N  0.00071389  0.76248391  0.29714229    -0.37300
N3876       N  0.97097353  0.69273049  0.31538472    -0.39700
N3877       N  0.44929047  0.61538090  0.26220202    -0.39500
N3878       N  0.96616450  0.54002803  0.28918353    -0.37100
N3879       N  0.05610536  0.61950074  0.33800966    -0.38200
N3880       N  0.05701439  0.68174479  0.30644255    -0.39800
C3881       C  0.50957716  0.64150697  0.42995846    -0.04800
C3882       C  0.00281726  0.63128753  0.44418563     0.09400
C3883       C  0.98392012  0.60783448  0.44490152    -0.02200
C3884       C  0.98143578  0.58897245  0.43202426    -0.00400
C3885       C  0.99888467  0.59263111  0.41852340    -0.04000
C3886       C  0.50984774  0.62203871  0.41710392     0.03000
C3887       C  0.00272332  0.65324560  0.45707882     0.09800
C3888       C  0.96698126  0.60323303  0.45897466     0.35700
C3889       C  0.52771114  0.62832273  0.40362865     0.39100
C3890       C  0.97908760  0.67368599  0.45847890    -0.04400
C3891       C  0.97910300  0.69519330  0.47020647     0.02800
C3892       C  0.49122872  0.69678725  0.48200556    -0.04000
C3893       C  0.51727531  0.68027166  0.47892216    -0.00200
C3894       C  0.51827022  0.65906786  0.46690471    -0.02800
C3895       C  0.95514493  0.67319666  0.44744885     0.36500
C3896       C  0.54389299  0.68696706  0.48691582     0.40100
C3897       C  0.95468395  0.71632901  0.47129743     0.39200
C3898       C  0.54487473  0.64180622  0.46395033     0.36100
C3899       C  0.52421736  0.66902373  0.42884930     0.36800
C3900       C  0.96010944  0.56643920  0.43261161     0.40100
N3901       N  0.93539328  0.73335959  0.47205006    -0.38000
N3902       N  0.93612556  0.67278161  0.43862738    -0.39600
N3903       N  0.56563050  0.69216600  0.49285993    -0.37300
N3904       N  0.56611790  0.62810101  0.46155199    -0.39700
N3905       N  0.95358074  0.59969159  0.47023758    -0.39500
N3906       N  0.94287929  0.54871415  0.43327229    -0.37100
N3907       N  0.54236381  0.63368526  0.39307840    -0.38200
N3908       N  0.53583437  0.69101167  0.42801664    -0.39800
C3909       C  0.51043376  0.89243614  0.44729551    -0.04800
C3910       C  0.49237101  0.86835092  0.44658068     0.09400
C3911       C  0.98656999  0.86295231  0.43285466    -0.02200
C3912       C  0.98597487  0.88219785  0.41993003    -0.00400
C3913       C  0.00140328  0.90845279  0.42042407    -0.04000
C3914       C  0.51184571  0.91187280  0.43455682     0.03000
C3915       C  0.49263765  0.84672829  0.45965812     0.09800
C3916       C  0.97310459  0.83478221  0.43173565     0.35700
C3917       C  0.53187326  0.93553913  0.43536757     0.39100
C3918       C  0.97671837  0.84397278  0.46888045    -0.04400
C3919       C  0.97727929  0.82143181  0.48023963     0.02800
C3920       C  0.49227551  0.80367423  0.48340911    -0.04000
C3921       C  0.51647894  0.80539469  0.47320656    -0.00200
C3922       C  0.51646342  0.82662095  0.46128973    -0.02800
C3923       C  0.94956562  0.85978086  0.46517458     0.36500
C3924       C  0.54081167  0.78415173  0.47436921     0.40100
C3925       C  0.95032434  0.81349990  0.48759019     0.39200
C3926       C  0.54049711  0.82710207  0.45027867     0.36100
C3927       C  0.52802968  0.89686092  0.46111518     0.36800
C3928       C  0.96876269  0.87497248  0.40638982     0.40100
N3929       N  0.92837703  0.80731974  0.49302944    -0.38000
N3930       N  0.92786553  0.87199592  0.46192959    -0.39600
N3931       N  0.56012221  0.76716356  0.47527005    -0.37300
N3932       N  0.55959909  0.82757323  0.44148079    -0.39700
N3933       N  0.96250613  0.81225604  0.43091730    -0.39500
N3934       N  0.95479233  0.86877745  0.39575245    -0.37100
N3935       N  0.54783965  0.95435680  0.43639937    -0.38200
N3936       N  0.54214761  0.90025925  0.47209958    -0.39800
C3937       C  0.66053343  0.97229572  0.46793325    -0.04800
C3938       C  0.65515659  0.99715725  0.45834938     0.09400
C3939       C  0.66876219  0.52879783  0.45996429    -0.02200
C3940       C  0.68977605  0.52916639  0.47190844    -0.00400
C3941       C  0.69666106  0.99876326  0.48267430    -0.04000
C3942       C  0.68167343  0.97286616  0.47985131     0.03000
C3943       C  0.63375389  0.99635319  0.44525816     0.09800
C3944       C  0.66583095  0.55305754  0.44896740     0.35700
C3945       C  0.68988335  0.94593397  0.48804257     0.39100
C3946       C  0.60288278  0.51868278  0.44628694    -0.04400
C3947       C  0.58305438  0.51869186  0.43370857     0.02800
C3948       C  0.59384071  0.99775321  0.41988757    -0.04000
C3949       C  0.62153681  0.98297863  0.41843479    -0.00200
C3950       C  0.64154328  0.98295666  0.43094905    -0.02800
C3951       C  0.59547922  0.53438528  0.46060060     0.36500
C3952       C  0.62973100  0.96723059  0.40428074     0.40100
C3953       C  0.55535822  0.53453519  0.43559006     0.39200
C3954       C  0.67045987  0.96949019  0.42908448     0.36100
C3955       C  0.64517245  0.94570225  0.46503693     0.36800
C3956       C  0.70799174  0.55430645  0.47326339     0.40100
N3957       N  0.53328123  0.54694258  0.43762860    -0.38000
N3958       N  0.58972393  0.54692272  0.47201673    -0.39600
N3959       N  0.63681671  0.95457291  0.39310384    -0.37300
N3960       N  0.69358547  0.95891582  0.42764377    -0.39700
N3961       N  0.66346239  0.57226529  0.44011628    -0.39500
N3962       N  0.72256566  0.57429016  0.47433718    -0.37100
N3963       N  0.69637154  0.92398325  0.49417639    -0.38200
N3964       N  0.63302691  0.92444427  0.46265935    -0.39800
C3965       C  0.82882772  0.97356598  0.46129498    -0.04800
C3966       C  0.84455427  0.99894549  0.45854965     0.09400
C3967       C  0.84103463  0.52023523  0.46825034    -0.02200
C3968       C  0.81821859  0.52290292  0.47929506    -0.00400
C3969       C  0.80288250  0.99808164  0.48304547    -0.04000
C3970       C  0.80833773  0.97300295  0.47353487     0.03000
C3971       C  0.86675284  0.49247082  0.44644716     0.09800
C3972       C  0.85879434  0.54507468  0.46494106     0.35700
C3973       C  0.79151638  0.94704244  0.47573340     0.39100
C3974       C  0.85725521  0.01268803  0.43073969    -0.04400
C3975       C  0.87626857  0.49975456  0.41854214     0.02800
C3976       C  0.90613935  0.49136725  0.42067162    -0.04000
C3977       C  0.91550196  0.48230820  0.43591746    -0.00200
C3978       C  0.89601078  0.48353293  0.44871095    -0.02800
C3979       C  0.82848423  0.02651725  0.42908411     0.36500
C3980       C  0.94499693  0.47114854  0.43871911     0.40100
C3981       C  0.86517918  0.50935662  0.40341550     0.39200
C3982       C  0.90603177  0.47569514  0.46432728     0.36100
C3983       C  0.83300905  0.94832099  0.45111086     0.36800
C3984       C  0.81087427  0.55133727  0.48608251     0.40100
N3985       N  0.86181678  0.04108930  0.39259780    -0.38000
N3986       N  0.80556032  0.03757644  0.42767949    -0.39600
N3987       N  0.96838076  0.46225491  0.44134806    -0.37300
N3988       N  0.91400336  0.46957223  0.47679574    -0.39700
N3989       N  0.87303665  0.56484578  0.46232120    -0.39500
N3990       N  0.80504328  0.57436361  0.49112174    -0.37100
N3991       N  0.77804458  0.92640007  0.47748416    -0.38200
N3992       N  0.83627061  0.92822784  0.44295990    -0.39800
C3993       C  0.64973797  0.51884004  0.53152048    -0.04800
C3994       C  0.65216772  0.98772726  0.54245281     0.09400
C3995       C  0.67249876  0.96423436  0.54008733    -0.02200
C3996       C  0.69422699  0.96621986  0.52850830    -0.00400
C3997       C  0.69582699  0.99178854  0.51906338    -0.04000
C3998       C  0.67191455  0.52139676  0.52015916     0.03000
C3999       C  0.63155290  0.98734456  0.55608286     0.09800
C4000       C  0.67160993  0.93839345  0.54998885     0.35700
C4001       C  0.67294387  0.54800424  0.51091055     0.39100
C4002       C  0.60456681  0.97419875  0.55473477    -0.04400
C4003       C  0.58471314  0.97499093  0.56738998     0.02800
C4004       C  0.59145464  0.98954078  0.58157583    -0.04000
C4005       C  0.61323528  0.51344016  0.58130069    -0.00200
C4006       C  0.63316302  0.51331420  0.56867949    -0.02800
C4007       C  0.59726281  0.95993711  0.54018824     0.36500
C4008       C  0.61594264  0.53477643  0.59370861     0.40100
C4009       C  0.55750283  0.96045860  0.56561580     0.39200
C4010       C  0.65777587  0.53218398  0.56908902     0.36100
C4011       C  0.62609812  0.54079611  0.53235666     0.36800
C4012       C  0.71599863  0.94246336  0.52691610     0.40100
N4013       N  0.53591600  0.94880989  0.56381965    -0.38000
N4014       N  0.59160734  0.94857473  0.52855844    -0.39600
N4015       N  0.61815677  0.55200854  0.60350316    -0.37300
N4016       N  0.67754772  0.54704385  0.56942077    -0.39700
N4017       N  0.67081842  0.91778987  0.55789604    -0.39500
N4018       N  0.73350668  0.92366047  0.52566961    -0.37100
N4019       N  0.67339187  0.56966364  0.50383709    -0.38200
N4020       N  0.60704450  0.55811554  0.53296603    -0.39800
C4021       C  0.86249174  0.98704183  0.56927778    -0.04800
C4022       C  0.86384681  0.51172667  0.55573895     0.09400
C4023       C  0.88850271  0.52906184  0.55562591    -0.02200
C4024       C  0.90700535  0.52942845  0.56877699    -0.00400
C4025       C  0.90192471  0.51126070  0.58190823    -0.04000
C4026       C  0.88291387  0.98581255  0.58156662     0.03000
C4027       C  0.84458671  0.00726539  0.54335926     0.09800
C4028       C  0.89509481  0.54623507  0.54185108     0.35700
C4029       C  0.88222400  0.96227217  0.59300792     0.39100
C4030       C  0.82286709  0.02976608  0.54164244    -0.04400
C4031       C  0.80212287  0.02829656  0.52959403     0.02800
C4032       C  0.80186553  0.00349833  0.51961882    -0.04000
C4033       C  0.82349160  0.98084969  0.52147498    -0.00200
C4034       C  0.84547129  0.98338807  0.53284380    -0.02800
C4035       C  0.82371104  0.56077393  0.54964499     0.36500
C4036       C  0.82156023  0.95349290  0.51305201     0.40100
C4037       C  0.77973221  0.05153330  0.52811336     0.39200
C4038       C  0.86846267  0.96077669  0.53418191     0.36100
C4039       C  0.83829863  0.96763031  0.56946378     0.36800
C4040       C  0.93087955  0.54918469  0.56885200     0.40100
N4041       N  0.76164769  0.06979895  0.52694807    -0.38000
N4042       N  0.82336807  0.58077907  0.55795485    -0.39600
N4043       N  0.82036539  0.93104495  0.50686059    -0.37300
N4044       N  0.88683158  0.94279960  0.53530817    -0.39700
N4045       N  0.90051347  0.55987972  0.53086715    -0.39500
N4046       N  0.94968711  0.56523358  0.56877512    -0.37100
N4047       N  0.88188491  0.94323620  0.60198833    -0.38200
N4048       N  0.81881396  0.95238625  0.56964764    -0.39800
C4049       C  0.52911708  0.66990989  0.53849973    -0.04800
C4050       C  0.01060305  0.65206218  0.54095984     0.09400
C4051       C  0.98695590  0.65314389  0.53047621    -0.02200
C4052       C  0.98543279  0.67449791  0.51848313    -0.00400
C4053       C  0.50024295  0.69499427  0.51804235    -0.04000
C4054       C  0.52603165  0.69209669  0.52709741     0.03000
C4055       C  0.01024843  0.63237036  0.55492052     0.09800
C4056       C  0.96376697  0.63284443  0.53244807     0.35700
C4057       C  0.54857683  0.71331157  0.52557091     0.39100
C4058       C  0.49769796  0.64036428  0.56922822    -0.04400
C4059       C  0.49746642  0.62123395  0.58218932     0.02800
C4060       C  0.00752299  0.59412687  0.58113868    -0.04000
C4061       C  0.02041436  0.58440991  0.56681157    -0.00200
C4062       C  0.02159046  0.60343443  0.55383112    -0.02800
C4063       C  0.48702717  0.67066055  0.57079541     0.36500
C4064       C  0.03285470  0.55492838  0.56510225     0.40100
C4065       C  0.48591843  0.63256809  0.59686702     0.39200
C4066       C  0.03443848  0.59329579  0.53919134     0.36100
C4067       C  0.55456038  0.66831875  0.54852159     0.36800
C4068       C  0.95945800  0.67761127  0.50898464     0.40100
N4069       N  0.47676465  0.64228697  0.60843994    -0.38000
N4070       N  0.47858049  0.69482009  0.57195014    -0.39600
N4071       N  0.04275898  0.53154304  0.56309182    -0.37300
N4072       N  0.04459941  0.58540251  0.52747333    -0.39700
N4073       N  0.94546303  0.61644525  0.53406515    -0.39500
N4074       N  0.93839719  0.67974870  0.50163075    -0.37100
N4075       N  0.56646943  0.73031759  0.52451622    -0.38200
N4076       N  0.57470962  0.66724105  0.55660995    -0.39800
C4077       C  0.51356394  0.84318313  0.53272692    -0.04800
C4078       C  0.99446466  0.84173527  0.54440847     0.09400
C4079       C  0.97000214  0.82527996  0.54092060    -0.02200
C4080       C  0.97112988  0.80482917  0.52856933    -0.00400
C4081       C  0.48960290  0.80266826  0.51989380    -0.04000
C4082       C  0.51352564  0.82097339  0.52121828     0.03000
C4083       C  0.99365463  0.86266692  0.55794902     0.09800
C4084       C  0.94383577  0.82887017  0.55032037     0.35700
C4085       C  0.53936562  0.81541824  0.51183925     0.39100
C4086       C  0.47209252  0.89226885  0.55720785    -0.04400
C4087       C  0.47184069  0.91180264  0.56996989     0.02800
C4088       C  0.99262140  0.90314483  0.58328910    -0.04000
C4089       C  0.00916913  0.87625630  0.58431239    -0.00200
C4090       C  0.00937809  0.85602868  0.57177948    -0.02800
C4091       C  0.45184145  0.89729720  0.54438954     0.36500
C4092       C  0.02756662  0.87001982  0.59777162     0.40100
C4093       C  0.44991054  0.93543751  0.57055009     0.39200
C4094       C  0.02604276  0.82839421  0.57302546     0.36100
C4095       C  0.53760776  0.86271636  0.53351774     0.36800
C4096       C  0.94672697  0.78617249  0.52612804     0.40100
N4097       N  0.43203273  0.95396915  0.57081425    -0.38000
N4098       N  0.43560340  0.90113250  0.53419803    -0.39600
N4099       N  0.04256770  0.86487232  0.60836408    -0.37300
N4100       N  0.03940724  0.80639482  0.57395220    -0.39700
N4101       N  0.92285483  0.83191514  0.55770804    -0.39500
N4102       N  0.92739461  0.77109330  0.52433016    -0.37100
N4103       N  0.56058591  0.81126582  0.50478529    -0.38200
N4104       N  0.55685493  0.87821629  0.53412974    -0.39800
C4105       C  0.61609267  0.72195640  0.20832696    -0.04800
C4106       C  0.59561377  0.74595902  0.20870940     0.09400
C4107       C  0.59945575  0.76998432  0.19850401    -0.02200
C4108       C  0.62197210  0.76895363  0.18725359    -0.00400
C4109       C  0.64290140  0.74536678  0.18716199    -0.04000
C4110       C  0.64034514  0.72236455  0.19813050     0.03000
C4111       C  0.56902212  0.74537765  0.21909717     0.09800
C4112       C  0.58020756  0.79590242  0.19956863     0.35700
C4113       C  0.66230394  0.69874276  0.19872462     0.39100
C4114       C  0.57135860  0.74657357  0.23543618    -0.04400
C4115       C  0.54625730  0.74630412  0.24509382     0.02800
C4116       C  0.51718187  0.74815899  0.23859072    -0.04000
C4117       C  0.51577126  0.74589823  0.22170744    -0.00200
C4118       C  0.54135010  0.74378414  0.21240167    -0.02800
C4119       C  0.59988110  0.74969831  0.24234780     0.36500
C4120       C  0.48913741  0.74271830  0.21306077     0.40100
C4121       C  0.55140685  0.74691132  0.26184040     0.39200
C4122       C  0.53936563  0.73895117  0.19560158     0.36100
C4123       C  0.61162920  0.69631590  0.21798617     0.36800
C4124       C  0.62347461  0.79228340  0.17572780     0.40100
N4125       N  0.55733024  0.74766762  0.27498066    -0.38000
N4126       N  0.62258186  0.75240031  0.24782250    -0.39600
N4127       N  0.96972433  0.74051830  0.20486945    -0.37300
N4128       N  0.53779213  0.73495393  0.18227167    -0.39700
N4129       N  0.56507889  0.81674724  0.20038671    -0.39500
N4130       N  0.62448605  0.81092516  0.16654442    -0.37100
N4131       N  0.67997113  0.68002542  0.19947062    -0.38200
N4132       N  0.60797020  0.67578808  0.22562685    -0.39800
C4133       C  0.85380199  0.76536109  0.21474814    -0.04800
C4134       C  0.88008347  0.74926451  0.21161802     0.09400
C4135       C  0.88220569  0.73189039  0.19799891    -0.02200
C4136       C  0.85885275  0.73144575  0.18738641    -0.00400
C4137       C  0.83369630  0.74984668  0.18963104    -0.04000
C4138       C  0.83078019  0.76590325  0.20374823     0.03000
C4139       C  0.90550287  0.75007722  0.22269780     0.09800
C4140       C  0.90826755  0.71386075  0.19492850     0.35700
C4141       C  0.80409055  0.78263822  0.20716485     0.39100
C4142       C  0.91282416  0.72592286  0.23226923    -0.04400
C4143       C  0.93752157  0.72589127  0.24220412     0.02800
C4144       C  0.95830006  0.74900174  0.24135790    -0.04000
C4145       C  0.94839690  0.77456388  0.23238208    -0.00200
C4146       C  0.92251205  0.77480035  0.22334652    -0.02800
C4147       C  0.89408302  0.70096326  0.23209377     0.36500
C4148       C  0.96465021  0.80101506  0.23124052     0.40100
C4149       C  0.93777344  0.70336804  0.25421246     0.39200
C4150       C  0.91411091  0.80022724  0.21378799     0.36100
C4151       C  0.85029186  0.78094172  0.22943775     0.36800
C4152       C  0.85971247  0.70972470  0.17501393     0.40100
N4153       N  0.93603989  0.68520070  0.26362538    -0.38000
N4154       N  0.87923273  0.68109467  0.23181824    -0.39600
N4155       N  0.97521196  0.82340466  0.22952217    -0.37300
N4156       N  0.90746157  0.82044480  0.20618288    -0.39700
N4157       N  0.92867898  0.69904791  0.19228164    -0.39500
N4158       N  0.86055241  0.69153190  0.16560170    -0.37100
N4159       N  0.78273625  0.79570271  0.21015573    -0.38200
N4160       N  0.84734989  0.79324381  0.24119315    -0.39800
C4161       C  0.79221020  0.58977487  0.03328850    -0.04800
C4162       C  0.76744961  0.59934795  0.04185968     0.09400
C4163       C  0.74066749  0.58629872  0.03928031    -0.02200
C4164       C  0.73919919  0.56203310  0.02925165    -0.00400
C4165       C  0.76370832  0.55280127  0.02025453    -0.04000
C4166       C  0.79021099  0.56698742  0.02223057     0.03000
C4167       C  0.76996924  0.62012220  0.05522006     0.09800
C4168       C  0.71484686  0.59717522  0.04753158     0.35700
C4169       C  0.81617368  0.55638928  0.01410533     0.39100
C4170       C  0.77025365  0.65054731  0.05267147    -0.04400
C4171       C  0.76900094  0.67003416  0.06548113     0.02800
C4172       C  0.76507039  0.65922458  0.08104268    -0.04000
C4173       C  0.76616865  0.62822781  0.08341222    -0.00200
C4174       C  0.76968400  0.60903205  0.07059470    -0.02800
C4175       C  0.77104702  0.66179343  0.03677372     0.36500
C4176       C  0.76242274  0.61534560  0.09878928     0.40100
C4177       C  0.77190714  0.70110645  0.06231059     0.39200
C4178       C  0.77235772  0.57749171  0.07311732     0.36100
C4179       C  0.82006696  0.60212060  0.03661169     0.36800
C4180       C  0.71317945  0.54512186  0.02929125     0.40100
N4181       N  0.77421370  0.72581318  0.05963304    -0.38000
N4182       N  0.77159357  0.67074934  0.02409717    -0.39600
N4183       N  0.75934382  0.60458522  0.11092858    -0.37300
N4184       N  0.77468336  0.55235326  0.07499684    -0.39700
N4185       N  0.69432738  0.60606077  0.05408563    -0.39500
N4186       N  0.69258392  0.53140637  0.02960950    -0.37100
N4187       N  0.83735327  0.54817184  0.00794872    -0.38200
N4188       N  0.84229486  0.61183776  0.03940070    -0.39800
C4189       C  0.71995645  0.85446641  0.05318501    -0.04800
C4190       C  0.72841546  0.88345702  0.05533913     0.09400
C4191       C  0.73271851  0.89389838  0.07062624    -0.02200
C4192       C  0.73164581  0.87470986  0.08360438    -0.00400
C4193       C  0.72540647  0.84465755  0.08151110    -0.04000
C4194       C  0.71812975  0.83521804  0.06612921     0.03000
C4195       C  0.73448421  0.90285612  0.04158954     0.09800
C4196       C  0.73866932  0.92463856  0.07295078     0.35700
C4197       C  0.70909680  0.80561355  0.06324298     0.39100
C4198       C  0.71153374  0.91659419  0.03301598    -0.04400
C4199       C  0.71740990  0.93808589  0.02161815     0.02800
C4200       C  0.74632912  0.94595205  0.01867691    -0.04000
C4201       C  0.76921391  0.93217845  0.02735797    -0.00200
C4202       C  0.76342147  0.90989752  0.03824534    -0.02800
C4203       C  0.68173255  0.90966764  0.03647912     0.36500
C4204       C  0.79834206  0.94303866  0.02637204     0.40100
C4205       C  0.69334752  0.95445887  0.01437726     0.39200
C4206       C  0.78726820  0.89492266  0.04649602     0.36100
C4207       C  0.71346583  0.84436589  0.03752912     0.36800
C4208       C  0.73827119  0.88635061  0.09887817     0.40100
N4209       N  0.67366569  0.96756560  0.00908506    -0.38000
N4210       N  0.65795246  0.90405553  0.03916616    -0.39600
N4211       N  0.82144769  0.95208628  0.02589747    -0.37300
N4212       N  0.80633271  0.88297226  0.05302506    -0.39700
N4213       N  0.74331952  0.94914376  0.07479488    -0.39500
N4214       N  0.74354263  0.89673353  0.11081872    -0.37100
N4215       N  0.70209080  0.78210613  0.06047880    -0.38200
N4216       N  0.70798751  0.83654474  0.02504730    -0.39800
C4217       C  0.78527498  0.58179403  0.96339548    -0.04800
C4218       C  0.76028195  0.60068858  0.96235855     0.09400
C4219       C  0.73746520  0.59775507  0.97318154    -0.02200
C4220       C  0.73793523  0.57388075  0.98369950    -0.00400
C4221       C  0.76264854  0.55442751  0.98455596    -0.04000
C4222       C  0.78649075  0.55882995  0.97447527     0.03000
C4223       C  0.75672172  0.62186015  0.94901200     0.09800
C4224       C  0.71311966  0.61904008  0.97316025     0.35700
C4225       C  0.81147284  0.53835458  0.97469585     0.39100
C4226       C  0.73612472  0.61689441  0.93713647    -0.04400
C4227       C  0.73232265  0.63701733  0.92468375     0.02800
C4228       C  0.75069036  0.66093899  0.92329830    -0.04000
C4229       C  0.77172311  0.66546397  0.93502217    -0.00200
C4230       C  0.77383078  0.64672564  0.94813946    -0.02800
C4231       C  0.71880290  0.59101858  0.93770504     0.36500
C4232       C  0.79221560  0.68854144  0.93337448     0.40100
C4233       C  0.70847959  0.63393577  0.91380857     0.39200
C4234       C  0.79336559  0.65322179  0.96086298     0.36100
C4235       C  0.80950402  0.58547407  0.95280148     0.36800
C4236       C  0.71147798  0.56761019  0.99200908     0.40100
N4237       N  0.68913455  0.63170128  0.90532764    -0.38000
N4238       N  0.70496211  0.57040529  0.93813787    -0.39600
N4239       N  0.80913665  0.70646999  0.93223233    -0.37300
N4240       N  0.80882898  0.65847098  0.97104760    -0.39700
N4241       N  0.69390623  0.63622366  0.97314355    -0.39500
N4242       N  0.68811255  0.06620685  0.99733724    -0.37100
N4243       N  0.83121590  0.52180532  0.97478135    -0.38200
N4244       N  0.82904310  0.58857914  0.94451598    -0.39800
C4245       C  0.71850738  0.92755155  0.96102977    -0.04800
C4246       C  0.74065119  0.90577545  0.95873504     0.09400
C4247       C  0.76489761  0.90419548  0.96876923    -0.02200
C4248       C  0.76834117  0.92603096  0.98017610    -0.00400
C4249       C  0.74615143  0.94795450  0.98259575    -0.04000
C4250       C  0.72095169  0.94824456  0.97308626     0.03000
C4251       C  0.73916865  0.88555184  0.94512401     0.09800
C4252       C  0.78668387  0.88048865  0.96699569     0.35700
C4253       C  0.69840773  0.97117521  0.97487912     0.39100
C4254       C  0.75616394  0.89033082  0.93168051    -0.04400
C4255       C  0.75517559  0.87094280  0.91890762     0.02800
C4256       C  0.73609565  0.84741068  0.91920540    -0.04000
C4257       C  0.71822740  0.84351241  0.93252793    -0.00200
C4258       C  0.72034764  0.86206248  0.94556124    -0.02800
C4259       C  0.77491498  0.91512826  0.93105404     0.36500
C4260       C  0.69727522  0.82068545  0.93293574     0.40100
C4261       C  0.77523812  0.87433410  0.90600095     0.39200
C4262       C  0.70347971  0.85680315  0.95958665     0.36100
C4263       C  0.69381988  0.92939974  0.95047869     0.36800
C4264       C  0.79622754  0.92780154  0.98782960     0.40100
N4265       N  0.79169263  0.87726811  0.89593307    -0.38000
N4266       N  0.78987924  0.93488695  0.93047944    -0.39600
N4267       N  0.68025258  0.80278774  0.93360284    -0.37300
N4268       N  0.69017332  0.85267728  0.97081875    -0.39700
N4269       N  0.80385604  0.86140696  0.96561599    -0.39500
N4270       N  0.81916248  0.92889889  0.99324206    -0.37100
N4271       N  0.68043981  0.98953825  0.97608304    -0.38200
N4272       N  0.67425746  0.93078035  0.94198758    -0.39800
C4273       C  0.01766494  0.64639636  0.69829698    -0.04800
C4274       C  0.99816906  0.64599264  0.71107485     0.09400
C4275       C  0.97984510  0.62203040  0.71272393    -0.02200
C4276       C  0.97992159  0.59954368  0.70133727    -0.00400
C4277       C  0.99893174  0.60025519  0.68827731    -0.04000
C4278       C  0.01821989  0.62364671  0.68707400     0.03000
C4279       C  0.99627504  0.67126111  0.72250836     0.09800
C4280       C  0.96057642  0.62069795  0.72614240     0.35700
C4281       C  0.03952434  0.62407825  0.67457337     0.39100
C4282       C  0.97127246  0.68987054  0.72311767    -0.04400
C4283       C  0.96976626  0.71464501  0.73314682     0.02800
C4284       C  0.99407262  0.72236334  0.74285197    -0.04000
C4285       C  0.51917657  0.70090182  0.74227985    -0.00200
C4286       C  0.52093791  0.67653569  0.73197639    -0.02800
C4287       C  0.94725943  0.68431688  0.71261113     0.36500
C4288       C  0.54023183  0.69945257  0.75479946     0.40100
C4289       C  0.94335619  0.73287656  0.73181921     0.39200
C4290       C  0.54566797  0.65561341  0.73263179     0.36100
C4291       C  0.03743720  0.67021868  0.69668537     0.36800
C4292       C  0.95947513  0.57636105  0.70290674     0.40100
N4293       N  0.92134923  0.74537327  0.72961564    -0.38000
N4294       N  0.92806629  0.67985207  0.70434398    -0.39600
N4295       N  0.55673740  0.69626697  0.76490255    -0.37300
N4296       N  0.56536718  0.63903625  0.73313466    -0.39700
N4297       N  0.94505284  0.61988090  0.73678085    -0.39500
N4298       N  0.94296551  0.55809585  0.70439313    -0.37100
N4299       N  0.05679768  0.62480727  0.66475407    -0.38200
N4300       N  0.55401511  0.68953406  0.69322160    -0.39800
C4301       C  0.51458988  0.87982603  0.71000250    -0.04800
C4302       C  0.98849436  0.86196897  0.71324010     0.09400
C4303       C  0.96265994  0.87186771  0.70560960    -0.02200
C4304       C  0.96347752  0.89400821  0.69403080    -0.00400
C4305       C  0.98974741  0.90773183  0.69072915    -0.04000
C4306       C  0.51478621  0.90321842  0.69911375     0.03000
C4307       C  0.98899964  0.83466205  0.72319741     0.09800
C4308       C  0.93536739  0.85867063  0.70930718     0.35700
C4309       C  0.54055917  0.92016370  0.69744874     0.39100
C4310       C  0.49082446  0.83676217  0.73781684    -0.04400
C4311       C  0.49272174  0.81082152  0.74709584     0.02800
C4312       C  0.99219654  0.78121448  0.74177515    -0.04000
C4313       C  0.99273329  0.78094129  0.72479709    -0.00200
C4314       C  0.98896506  0.80716310  0.71597167    -0.02800
C4315       C  0.48703102  0.86541983  0.74514388     0.36500
C4316       C  0.00106421  0.75547489  0.71547610     0.40100
C4317       C  0.49080327  0.81535905  0.76383334     0.39200
C4318       C  0.98622900  0.80601605  0.69900653     0.36100
C4319       C  0.54032236  0.87261735  0.71923418     0.36800
C4320       C  0.93730572  0.90254819  0.68543647     0.40100
N4321       N  0.48876320  0.82190326  0.77686718    -0.38000
N4322       N  0.48386613  0.88821803  0.75096512    -0.39600
N4323       N  0.00833596  0.73647284  0.70722000    -0.37300
N4324       N  0.98382628  0.80529793  0.68553966    -0.39700
N4325       N  0.91338093  0.84841451  0.71212034    -0.39500
N4326       N  0.91640870  0.90927966  0.67858403    -0.37100
N4327       N  0.56122550  0.93357407  0.69621583    -0.38200
N4328       N  0.56080220  0.86686155  0.72663893    -0.39800
C4329       C  0.60542707  0.78095280  0.80170152    -0.04800
C4330       C  0.60097212  0.75702410  0.79163066     0.09400
C4331       C  0.62122111  0.73277364  0.79189225    -0.02200
C4332       C  0.64452376  0.73180204  0.80271757    -0.00400
C4333       C  0.64759937  0.75476758  0.81357116    -0.04000
C4334       C  0.62812310  0.77955742  0.81283974     0.03000
C4335       C  0.57401102  0.75702689  0.78151636     0.09800
C4336       C  0.61826351  0.70854699  0.78116716     0.35700
C4337       C  0.63153790  0.80387088  0.82348733     0.39100
C4338       C  0.57538346  0.76235329  0.76538672    -0.04400
C4339       C  0.55012733  0.76105836  0.75585867     0.02800
C4340       C  0.52156398  0.75675754  0.76247488    -0.04000
C4341       C  0.52079393  0.75675575  0.77943274    -0.00200
C4342       C  0.54665329  0.75388386  0.78841328    -0.02800
C4343       C  0.60337002  0.76853771  0.75851042     0.36500
C4344       C  0.49486753  0.76325840  0.78859592     0.40100
C4345       C  0.55545070  0.76169506  0.73917014     0.39200
C4346       C  0.54507328  0.74831590  0.80515968     0.36100
C4347       C  0.58667788  0.80721619  0.80044678     0.36800
C4348       C  0.66460750  0.70645933  0.80313268     0.40100
N4349       N  0.56258848  0.76209886  0.72618786    -0.38000
N4350       N  0.62568352  0.77354838  0.75309907    -0.39600
N4351       N  0.97684593  0.76610640  0.79865342    -0.37300
N4352       N  0.54376954  0.74383797  0.81847047    -0.39700
N4353       N  0.61698740  0.68887031  0.77271070    -0.39500
N4354       N  0.68052874  0.68616306  0.80342905    -0.37100
N4355       N  0.63413057  0.82333370  0.83196083    -0.38200
N4356       N  0.57178340  0.82817976  0.79928883    -0.39800
C4357       C  0.88329237  0.76682552  0.80481766    -0.04800
C4358       C  0.88680274  0.74385224  0.79382372     0.09400
C4359       C  0.86678943  0.72107768  0.79387005    -0.02200
C4360       C  0.84416418  0.72088094  0.80511670    -0.00400
C4361       C  0.83993910  0.74457842  0.81561867    -0.04000
C4362       C  0.85968831  0.76754879  0.81534901     0.03000
C4363       C  0.91163439  0.74417185  0.78226102     0.09800
C4364       C  0.86946052  0.69785512  0.78233502     0.35700
C4365       C  0.85587928  0.79220525  0.82592946     0.39100
C4366       C  0.93461860  0.72309680  0.78295770    -0.04400
C4367       C  0.95911376  0.72492424  0.77294597     0.02800
C4368       C  0.96303122  0.75004446  0.76284538    -0.04000
C4369       C  0.93770924  0.77008672  0.76163720    -0.00200
C4370       C  0.91267206  0.76661730  0.77107410    -0.02800
C4371       C  0.93376454  0.70003066  0.79473516     0.36500
C4372       C  0.93414345  0.79289439  0.74986640     0.40100
C4373       C  0.98089547  0.70126321  0.77459439     0.39200
C4374       C  0.88704665  0.78613517  0.76910175     0.36100
C4375       C  0.90411476  0.78988570  0.80534113     0.36800
C4376       C  0.82692801  0.69515923  0.80674424     0.40100
N4377       N  0.99653630  0.68127167  0.77705649    -0.38000
N4378       N  0.93311564  0.68166512  0.80409285    -0.39600
N4379       N  0.92925602  0.81098735  0.74059813    -0.37300
N4380       N  0.86668500  0.80160351  0.76754778    -0.39700
N4381       N  0.87172924  0.67932608  0.77313334    -0.39500
N4382       N  0.81387818  0.67418788  0.80828487    -0.37100
N4383       N  0.85330971  0.81200265  0.83431533    -0.38200
N4384       N  0.92056409  0.80839534  0.80569421    -0.39800
C4385       C  0.81891320  0.52404378  0.73005253    -0.04800
C4386       C  0.82353561  0.50266296  0.71851079     0.09400
C4387       C  0.80503691  0.98088399  0.71789889    -0.02200
C4388       C  0.77990084  0.98058561  0.72759459    -0.00400
C4389       C  0.77338873  0.50114597  0.73889264    -0.04000
C4390       C  0.79323559  0.52502392  0.73913519     0.03000
C4391       C  0.84900842  0.50468850  0.70764884     0.09800
C4392       C  0.81050238  0.95805923  0.70631106     0.35700
C4393       C  0.78667245  0.55332304  0.74628598     0.39100
C4394       C  0.87672210  0.98664569  0.71090990    -0.04400
C4395       C  0.90123722  0.98997564  0.70113204     0.02800
C4396       C  0.89831678  0.51140302  0.68813137    -0.04000
C4397       C  0.87318395  0.53017538  0.68635902    -0.00200
C4398       C  0.84860260  0.52655672  0.69593199    -0.02800
C4399       C  0.87771375  0.96452859  0.72313178     0.36500
C4400       C  0.87283481  0.55410489  0.67512284     0.40100
C4401       C  0.92779134  0.97304637  0.70453807     0.39200
C4402       C  0.82251528  0.54505212  0.69361066     0.36100
C4403       C  0.84036935  0.54635145  0.73199817     0.36800
C4404       C  0.76112650  0.95626349  0.72519392     0.40100
N4405       N  0.94905257  0.95995591  0.70766157    -0.38000
N4406       N  0.87882479  0.94641789  0.73264942    -0.39600
N4407       N  0.87225274  0.57348680  0.66633826    -0.37300
N4408       N  0.80157849  0.55960676  0.69185574    -0.39700
N4409       N  0.81510749  0.93972052  0.69720102    -0.39500
N4410       N  0.74767562  0.93604797  0.72239432    -0.37100
N4411       N  0.78240959  0.57670800  0.75124438    -0.38200
N4412       N  0.85738325  0.56412989  0.73345460    -0.39800
C4413       C  0.68892615  0.51778975  0.71695995    -0.04800
C4414       C  0.66740737  0.49749581  0.71947184     0.09400
C4415       C  0.67254925  0.97716014  0.73042642    -0.02200
C4416       C  0.69838293  0.97513732  0.73943305    -0.00400
C4417       C  0.71915165  0.99821938  0.73929135    -0.04000
C4418       C  0.71368856  0.51815800  0.72677727     0.03000
C4419       C  0.64177347  0.49673689  0.70874670     0.09800
C4420       C  0.65055546  0.95529306  0.73213574     0.35700
C4421       C  0.73261775  0.54227418  0.72411208     0.39100
C4422       C  0.64200395  0.47625150  0.69642633    -0.04400
C4423       C  0.61807924  0.47517918  0.68623249     0.02800
C4424       C  0.59436571  0.49587811  0.68765672    -0.04000
C4425       C  0.59282875  0.01453873  0.70085512    -0.00200
C4426       C  0.61692818  0.01570695  0.71109229    -0.02800
C4427       C  0.66733220  0.45671953  0.69402958     0.36500
C4428       C  0.56776062  0.03424426  0.70343019     0.40100
C4429       C  0.61789500  0.45226981  0.67448743     0.39200
C4430       C  0.61511672  0.03472207  0.72463022     0.36100
C4431       C  0.68510921  0.53885660  0.70423629     0.36800
C4432       C  0.70401081  0.94660629  0.74641624     0.40100
N4433       N  0.61803875  0.43364952  0.66531568    -0.38000
N4434       N  0.68767930  0.44139101  0.69211414    -0.39600
N4435       N  0.54791471  0.05008895  0.70565079    -0.37300
N4436       N  0.61276580  0.04998150  0.73538608    -0.39700
N4437       N  0.63304711  0.93792810  0.73336437    -0.39500
N4438       N  0.70747467  0.92292663  0.75111770    -0.37100
N4439       N  0.74613764  0.56223279  0.72081742    -0.38200
N4440       N  0.68193212  0.55550979  0.69407567    -0.39800
C4441       C  0.74691345  0.62927880  0.78986176    -0.04800
C4442       C  0.74158583  0.60057326  0.79496889     0.09400
C4443       C  0.73607717  0.59550529  0.81090874    -0.02200
C4444       C  0.73742990  0.61851273  0.82188477    -0.00400
C4445       C  0.74264667  0.64791368  0.81695137    -0.04000
C4446       C  0.74664373  0.65291300  0.80060132     0.03000
C4447       C  0.74227067  0.57519980  0.78368982     0.09800
C4448       C  0.72899889  0.56617915  0.81603021     0.35700
C4449       C  0.75072376  0.68219328  0.79448712     0.39100
C4450       C  0.76507085  0.55393781  0.78426924    -0.04400
C4451       C  0.76529161  0.52898803  0.77441454     0.02800
C4452       C  0.74322994  0.52536371  0.76259203    -0.04000
C4453       C  0.71896215  0.54666783  0.76325686    -0.00200
C4454       C  0.71907125  0.57121200  0.77346113    -0.02800
C4455       C  0.78915626  0.55842965  0.79488567     0.36500
C4456       C  0.69156803  0.54290734  0.75544355     0.40100
C4457       C  0.78993937  0.50854605  0.77640853     0.39200
C4458       C  0.69428566  0.59207667  0.77408010     0.36100
C4459       C  0.75313909  0.63446772  0.77346497     0.36800
C4460       C  0.73350667  0.61086238  0.83822068     0.40100
N4461       N  0.81034014  0.49383219  0.77923856    -0.38000
N4462       N  0.80827342  0.56214917  0.80332619    -0.39600
N4463       N  0.66874224  0.54081146  0.75004615    -0.37300
N4464       N  0.67455279  0.60860212  0.77465884    -0.39700
N4465       N  0.72339368  0.54280893  0.82004977    -0.39500
N4466       N  0.73073292  0.60375403  0.85112632    -0.37100
N4467       N  0.75380256  0.70548365  0.78947760    -0.38200
N4468       N  0.75817398  0.63882656  0.76041626    -0.39800
C4469       C  0.76941786  0.92242926  0.77032829    -0.04800
C4470       C  0.74743578  0.91873031  0.78141816     0.09400
C4471       C  0.72745387  0.94213846  0.78425153    -0.02200
C4472       C  0.72738228  0.96801911  0.77491646    -0.00400
C4473       C  0.74885310  0.97203909  0.76272611    -0.04000
C4474       C  0.77188388  0.94945206  0.76226326     0.03000
C4475       C  0.74811422  0.89188359  0.79178319     0.09800
C4476       C  0.70641985  0.93923370  0.79681877     0.35700
C4477       C  0.80047667  0.95406327  0.75589767     0.39100
C4478       C  0.76794427  0.89000943  0.80434118    -0.04400
C4479       C  0.76863832  0.86547266  0.81444071     0.02800
C4480       C  0.74846062  0.84309007  0.81264664    -0.04000
C4481       C  0.72938551  0.84433729  0.79970876    -0.00200
C4482       C  0.72942913  0.86846792  0.78922551    -0.02800
C4483       C  0.78746507  0.91371719  0.80699838     0.36500
C4484       C  0.70900376  0.82129096  0.79742867     0.40100
C4485       C  0.79093711  0.86300722  0.82636885     0.39200
C4486       C  0.71010027  0.86890917  0.77588341     0.36100
C4487       C  0.79063738  0.89840129  0.76777016     0.36800
C4488       C  0.70364707  0.98908751  0.77792878     0.40100
N4489       N  0.80921955  0.86152885  0.83563322    -0.38000
N4490       N  0.80294261  0.93269486  0.80906015    -0.39600
N4491       N  0.69279860  0.80288079  0.79556175    -0.37300
N4492       N  0.69439004  0.86808649  0.76535790    -0.39700
N4493       N  0.68977550  0.93692760  0.80686092    -0.39500
N4494       N  0.68398519  0.00427043  0.78147350    -0.37100
N4495       N  0.82400079  0.95681803  0.75151820    -0.38200
N4496       N  0.80744991  0.87920146  0.76578628    -0.39800
C4497       C  0.57044120  0.73077429  0.04039993    -0.04800
C4498       C  0.59026452  0.75340200  0.04176173     0.09400
C4499       C  0.58743716  0.77819225  0.03188078    -0.02200
C4500       C  0.56359640  0.78145982  0.02157912    -0.00400
C4501       C  0.54386351  0.75867838  0.01999497    -0.04000
C4502       C  0.54763209  0.73315499  0.02942438     0.03000
C4503       C  0.61203330  0.75255809  0.05478545     0.09800
C4504       C  0.60847848  0.80097564  0.03284198     0.35700
C4505       C  0.52702053  0.70995772  0.02854285     0.39100
C4506       C  0.63636603  0.73275934  0.05435501    -0.04400
C4507       C  0.65528729  0.73025532  0.06731022     0.02800
C4508       C  0.65093838  0.74878599  0.08046136    -0.04000
C4509       C  0.62741853  0.76973548  0.08045362    -0.00200
C4510       C  0.60760452  0.77099830  0.06789392    -0.02800
C4511       C  0.64210345  0.71527525  0.04045527     0.36500
C4512       C  0.62436737  0.79121542  0.09289118     0.40100
C4513       C  0.67881675  0.70809118  0.06718535     0.39200
C4514       C  0.58256605  0.79139065  0.06843414     0.36100
C4515       C  0.57267595  0.70566108  0.05087486     0.36800
C4516       C  0.55761930  0.80975695  0.01428646     0.40100
N4517       N  0.69743248  0.69025391  0.06704444    -0.38000
N4518       N  0.64676834  0.70150373  0.02931322    -0.39600
N4519       N  0.62183476  0.80882657  0.10257015    -0.37300
N4520       N  0.56262992  0.80768283  0.06877927    -0.39700
N4521       N  0.62528361  0.81910710  0.03362621    -0.39500
N4522       N  0.55317289  0.83300834  0.00914740    -0.37100
N4523       N  0.51052787  0.69150479  0.02795623    -0.38200
N4524       N  0.57447498  0.68570560  0.05927062    -0.39800
C4525       C  0.91304994  0.79004276  0.04101398    -0.04800
C4526       C  0.89523889  0.76588484  0.04312802     0.09400
C4527       C  0.89872687  0.74143726  0.03312929    -0.02200
C4528       C  0.92140547  0.74001842  0.02197807    -0.00400
C4529       C  0.93980386  0.76388046  0.02000818    -0.04000
C4530       C  0.93541172  0.78895852  0.02966048     0.03000
C4531       C  0.87464375  0.76499412  0.05677586     0.09800
C4532       C  0.87934397  0.71727189  0.03465455     0.35700
C4533       C  0.95514263  0.81291640  0.02873142     0.39100
C4534       C  0.84853194  0.78220356  0.05677793    -0.04400
C4535       C  0.82966222  0.78175101  0.06981548     0.02800
C4536       C  0.83573162  0.76267235  0.08264735    -0.04000
C4537       C  0.86209001  0.74552249  0.08261680    -0.00200
C4538       C  0.88162031  0.74711747  0.06988971    -0.02800
C4539       C  0.84101064  0.80028348  0.04326001     0.36500
C4540       C  0.86896571  0.72537042  0.09535630     0.40100
C4541       C  0.80489888  0.80232197  0.07028714     0.39200
C4542       C  0.90902664  0.73022280  0.07024891     0.36100
C4543       C  0.90876847  0.81576945  0.05083790     0.36800
C4544       C  0.92771628  0.71248753  0.01404375     0.40100
N4545       N  0.78566700  0.81941918  0.07047813    -0.38000
N4546       N  0.83507939  0.81465372  0.03245291    -0.39600
N4547       N  0.87495300  0.70902346  0.10533408    -0.37300
N4548       N  0.93088421  0.71676331  0.07051193    -0.39700
N4549       N  0.86382265  0.69805100  0.03583161    -0.39500
N4550       N  0.93243537  0.68981480  0.00833963    -0.37100
N4551       N  0.97099015  0.83196032  0.02823343    -0.38200
N4552       N  0.90497867  0.83634435  0.05859244    -0.39800
C4553       C  0.57496589  0.78506614  0.96407897    -0.04800
C4554       C  0.58702825  0.75710872  0.96005145     0.09400
C4555       C  0.57835732  0.73213859  0.96844168    -0.02200
C4556       C  0.55783582  0.73513804  0.98068422    -0.00400
C4557       C  0.54431189  0.76282800  0.98395245    -0.04000
C4558       C  0.55245297  0.78763314  0.97522831     0.03000
C4559       C  0.60766521  0.75383061  0.94645424     0.09800
C4560       C  0.58935357  0.70308607  0.96392844     0.35700
C4561       C  0.53591663  0.81529214  0.97665455     0.39100
C4562       C  0.63668325  0.74389739  0.94887509    -0.04400
C4563       C  0.65579985  0.73978808  0.93607317     0.02800
C4564       C  0.64712794  0.74870725  0.92071825    -0.04000
C4565       C  0.61794484  0.75931657  0.91844879    -0.00200
C4566       C  0.59818684  0.76072070  0.93111523    -0.02800
C4567       C  0.64721213  0.73888295  0.96470488     0.36500
C4568       C  0.60804380  0.77030754  0.90334724     0.40100
C4569       C  0.68434973  0.72621364  0.93900389     0.39200
C4570       C  0.56804455  0.76997194  0.92837651     0.36100
C4571       C  0.58512061  0.81117054  0.95639210     0.36800
C4572       C  0.54885690  0.70916508  0.98889854     0.40100
N4573       N  0.70697779  0.71534358  0.94162794    -0.38000
N4574       N  0.65553907  0.73508091  0.97734655    -0.39600
N4575       N  0.59957663  0.77936493  0.89146787    -0.37300
N4576       N  0.54411129  0.77761496  0.92619005    -0.39700
N4577       N  0.59805740  0.67989059  0.96034382    -0.39500
N4578       N  0.54203173  0.68801353  0.99518233    -0.37100
N4579       N  0.52234929  0.83716449  0.97757096    -0.38200
N4580       N  0.59322066  0.83196860  0.95024655    -0.39800
C4581       C  0.90249035  0.79077413  0.96906708    -0.04800
C4582       C  0.89411657  0.76583418  0.96066207     0.09400
C4583       C  0.90758070  0.73817502  0.96413154    -0.02200
C4584       C  0.93064126  0.73586594  0.97495004    -0.00400
C4585       C  0.93849429  0.76060690  0.98375152    -0.04000
C4586       C  0.92402496  0.78803113  0.98084142     0.03000
C4587       C  0.87328942  0.76874598  0.94710764     0.09800
C4588       C  0.89857203  0.71217451  0.95598545     0.35700
C4589       C  0.93327435  0.81406625  0.98879610     0.39100
C4590       C  0.88353684  0.76404362  0.93172801    -0.04400
C4591       C  0.86390066  0.76239010  0.91908997     0.02800
C4592       C  0.83339796  0.76713151  0.92149020    -0.04000
C4593       C  0.82379580  0.77548491  0.93680439    -0.00200
C4594       C  0.84344307  0.77510312  0.94954478    -0.02800
C4595       C  0.91462624  0.76057344  0.92895338     0.36500
C4596       C  0.79389397  0.78523662  0.93970790     0.40100
C4597       C  0.87575932  0.75510223  0.90378907     0.39200
C4598       C  0.83283856  0.78075173  0.96529715     0.36100
C4599       C  0.89044638  0.81960068  0.96483861     0.36800
C4600       C  0.94799463  0.70859522  0.97589189     0.40100
N4601       N  0.88560395  0.74931881  0.89166462    -0.38000
N4602       N  0.93940666  0.75786019  0.92679939    -0.39600
N4603       N  0.77021656  0.79326921  0.94230131    -0.37300
N4604       N  0.82447749  0.78532098  0.97786645    -0.39700
N4605       N  0.89144183  0.69145826  0.94946570    -0.39500
N4606       N  0.96215627  0.68703720  0.97638738    -0.37100
N4607       N  0.94057706  0.83513503  0.99490574    -0.38200
N4608       N  0.88103237  0.84265286  0.96140878    -0.39800
C4609       C  0.87467623  0.52431649  0.29288842    -0.04800
C4610       C  0.85645562  0.50012901  0.29166405     0.09400
C4611       C  0.86137659  0.97410006  0.30069992    -0.02200
C4612       C  0.88471635  0.97331035  0.31141300    -0.00400
C4613       C  0.90200100  0.49968475  0.31402356    -0.04000
C4614       C  0.89608906  0.52479216  0.30469176     0.03000
C4615       C  0.83110957  0.50097984  0.28047641     0.09800
C4616       C  0.84177882  0.94997988  0.30030656     0.35700
C4617       C  0.90958702  0.55208301  0.30840655     0.39100
C4618       C  0.82981281  0.97979649  0.26722969    -0.04400
C4619       C  0.80418843  0.97768270  0.25811652     0.02800
C4620       C  0.77931842  0.49903039  0.26122788    -0.04000
C4621       C  0.78396484  0.52254789  0.27219715    -0.00200
C4622       C  0.80827174  0.52192966  0.28234046    -0.02800
C4623       C  0.85567437  0.96153049  0.26371422     0.36500
C4624       C  0.76253403  0.54607898  0.27511703     0.40100
C4625       C  0.80636483  0.95586878  0.24581318     0.39200
C4626       C  0.80844715  0.54130052  0.29586537     0.36100
C4627       C  0.87094393  0.54901884  0.28223270     0.36800
C4628       C  0.88997793  0.94763488  0.32124706     0.40100
N4629       N  0.80996379  0.93845393  0.23609251    -0.38000
N4630       N  0.87631472  0.94717584  0.26088069    -0.39600
N4631       N  0.74725851  0.56565568  0.27878488    -0.37300
N4632       N  0.80845882  0.55636737  0.30673912    -0.39700
N4633       N  0.82612438  0.93076529  0.30001111    -0.39500
N4634       N  0.89410184  0.92718406  0.32911518    -0.37100
N4635       N  0.91959082  0.57411720  0.31168411    -0.38200
N4636       N  0.86779069  0.56869749  0.27372984    -0.39800
C4637       C  0.62587817  0.96719850  0.29404457    -0.04800
C4638       C  0.64371321  0.49206958  0.29302942     0.09400
C4639       C  0.63705145  0.51754714  0.30191224    -0.02200
C4640       C  0.61306598  0.51851541  0.31215498    -0.00400
C4641       C  0.59498338  0.49431920  0.31339509    -0.04000
C4642       C  0.60136402  0.96832274  0.30408561     0.03000
C4643       C  0.67030478  0.49083744  0.28275836     0.09800
C4644       C  0.65534118  0.54266346  0.30083539     0.35700
C4645       C  0.58332765  0.94311701  0.30549411     0.39100
C4646       C  0.66774642  0.49187853  0.26645763    -0.04400
C4647       C  0.69268658  0.49368012  0.25678022     0.02800
C4648       C  0.72166634  0.49504720  0.26324140    -0.04000
C4649       C  0.72316273  0.98900241  0.27925528    -0.00200
C4650       C  0.69778087  0.98898657  0.28872497    -0.02800
C4651       C  0.63878694  0.49290142  0.25963948     0.36500
C4652       C  0.74965558  0.98105481  0.28766961     0.40100
C4653       C  0.68672822  0.49738169  0.24023641     0.39200
C4654       C  0.70012460  0.98620864  0.30566868     0.36100
C4655       C  0.63379635  0.94026743  0.28582482     0.36800
C4656       C  0.60726005  0.54449104  0.32159436     0.40100
N4657       N  0.67904175  0.50089653  0.22746079    -0.38000
N4658       N  0.61568501  0.49369679  0.25430342    -0.39600
N4659       N  0.76962239  0.97379889  0.29517068    -0.37300
N4660       N  0.70201306  0.98398778  0.31912426    -0.39700
N4661       N  0.66996243  0.56268371  0.30021336    -0.39500
N4662       N  0.60302015  0.56525989  0.32912878    -0.37100
N4663       N  0.56879833  0.92308237  0.30652204    -0.38200
N4664       N  0.64019442  0.91877381  0.27927690    -0.39800
C4665       C  0.77226170  0.56142229  0.22236354    -0.04800
C4666       C  0.74917166  0.58232514  0.22310277     0.09400
C4667       C  0.72755465  0.57902504  0.23444145    -0.02200
C4668       C  0.72707522  0.55344974  0.24402168    -0.00400
C4669       C  0.74893843  0.52970747  0.24245476    -0.04000
C4670       C  0.77292031  0.53619487  0.23213697     0.03000
C4671       C  0.74747980  0.60756127  0.21160238     0.09800
C4672       C  0.70581710  0.60283699  0.23640594     0.35700
C4673       C  0.79773769  0.51617121  0.22969525     0.39100
C4674       C  0.72625596  0.60841155  0.19963725    -0.04400
C4675       C  0.72643411  0.63034113  0.18792558     0.02800
C4676       C  0.74741763  0.65211708  0.18819448    -0.04000
C4677       C  0.76788938  0.65199458  0.20051926    -0.00200
C4678       C  0.76789932  0.62987079  0.21215930    -0.02800
C4679       C  0.70382473  0.58699201  0.19946037     0.36500
C4680       C  0.78962646  0.67403982  0.20104692     0.40100
C4681       C  0.70416017  0.63119071  0.17591273     0.39200
C4682       C  0.78903575  0.62996799  0.22473773     0.36100
C4683       C  0.79477387  0.56499552  0.21059374     0.36800
C4684       C  0.70457899  0.55442666  0.25588541     0.40100
N4685       N  0.68622750  0.63206744  0.16643225    -0.38000
N4686       N  0.68551544  0.57034478  0.19939028    -0.39600
N4687       N  0.80721085  0.69138007  0.20172326    -0.37300
N4688       N  0.80598752  0.62987974  0.23472323    -0.39700
N4689       N  0.68863659  0.62186312  0.23794209    -0.39500
N4690       N  0.68632296  0.55720144  0.26515502    -0.37100
N4691       N  0.81861238  0.50247499  0.22650079    -0.38200
N4692       N  0.81263852  0.56780980  0.20123373    -0.39800
C4693       C  0.71690724  0.87822069  0.20703680    -0.04800
C4694       C  0.74357127  0.89212999  0.20875786     0.09400
C4695       C  0.76845247  0.88098331  0.20071481    -0.02200
C4696       C  0.76636850  0.85682400  0.19056472    -0.00400
C4697       C  0.73949503  0.84353266  0.18852694    -0.04000
C4698       C  0.71502955  0.85367092  0.19714597     0.03000
C4699       C  0.74524234  0.91863591  0.21905481     0.09800
C4700       C  0.79610258  0.89457559  0.20271626     0.35700
C4701       C  0.68791912  0.83889474  0.19582229     0.39100
C4702       C  0.74613419  0.91543961  0.23529904    -0.04400
C4703       C  0.74704789  0.94028739  0.24520394     0.02800
C4704       C  0.74741593  0.96993870  0.23904139    -0.04000
C4705       C  0.74418941  0.97211922  0.22213820    -0.00200
C4706       C  0.74444304  0.94677913  0.21251707    -0.02800
C4707       C  0.74762191  0.88585450  0.24179698     0.36500
C4708       C  0.73723280  0.99911511  0.21375693     0.40100
C4709       C  0.75067339  0.93348271  0.26164916     0.39200
C4710       C  0.74283629  0.94952232  0.19554276     0.36100
C4711       C  0.69122938  0.88968990  0.21516601     0.36800
C4712       C  0.79196140  0.84523959  0.18235967     0.40100
N4713       N  0.75419604  0.92459454  0.27422518    -0.38000
N4714       N  0.74898484  0.86225198  0.24684286    -0.39600
N4715       N  0.73100111  0.01939629  0.20611800    -0.37300
N4716       N  0.74161954  0.95166703  0.18206155    -0.39700
N4717       N  0.81827394  0.90530357  0.20417823    -0.39500
N4718       N  0.81232951  0.83567113  0.17591816    -0.37100
N4719       N  0.66627203  0.82701498  0.19502639    -0.38200
N4720       N  0.67076420  0.89893781  0.22163643    -0.39800
loop_ 
_geom_bond_atom_site_label_1 
_geom_bond_atom_site_label_2 
_geom_bond_distance 
_geom_bond_site_symmetry_2 
_ccdc_geom_bond_type 
C1         C1164   1.615       .  S
C1         C2260   1.612       .  S
C1         C2288   1.620       .  S
C1         C2309   1.623       .  S
C2            C3   1.418   1_556  A
C2            C7   1.403       .  A
C2         C1045   1.494       .  S
C3            C4   1.406       .  A
C3          C989   1.497       .  S
C4         C2365   1.407       .  A
C4            H9   1.085       .  S
C5            C6   1.418   1_554  A
C5         C2364   1.406   1_455  A
C5          C961   1.499       .  S
C6         C2367   1.400   1_455  A
C6         C1017   1.489       .  S
C7         C2366   1.402       .  A
C7            H8   1.085       .  S
C10         C877   1.609       .  S
C10         C933   1.618       .  S
C10        C2029   1.614       .  S
C10        C2092   1.609       .  S
C11         C744   1.618       .  S
C11         C772   1.620       .  S
C11         C828   1.616       .  S
C11        C3160   1.618       .  S
C12          C13   1.418   1_556  A
C12          C17   1.405       .  A
C12         C709   1.500       .  S
C13          C14   1.404       .  A
C13         C660   1.492       .  S
C14        C1195   1.403       .  A
C14          H19   1.085       .  S
C15          C16   1.419   1_554  A
C15        C1194   1.405   1_545  A
C15         C625   1.498       .  S
C16        C1197   1.409       .  A
C16         C681   1.502       .  S
C17        C1196   1.403       .  A
C17          H18   1.085       .  S
O20         Zr32   2.468       .  S
O20          C22   1.293       .  A
O21         Zr58   2.408       .  S
O21          C22   1.282       .  A
C22        C1052   1.514       .  S
O23         Zr35   2.444       .  S
O23          C25   1.288       .  A
O24         Zr59   2.448       .  S
O24          C25   1.291       .  A
C25         C940   1.492       .  S
O26         Zr35   2.454       .  S
O26          C28   1.290       .  A
O27         Zr58   2.405       .  S
O27          C28   1.283       .  A
C28         C716   1.483       .  S
O29         Zr32   2.440       .  S
O29          C31   1.288       .  A
O30         Zr59   2.449       .  S
O30          C31   1.292       .  A
C31         C821   1.493       .  S
Zr32         O33   2.434       .  S
Zr32         O34   2.435       .  S
Zr32         O38   2.359       .  S
Zr32         O39   2.368       .  S
Zr32         O62   2.385       .  S
Zr32         O64   2.366       .  S
O33          H76   0.990       .  S
O34          H75   0.990       .  S
O34          H79   0.990       .  S
Zr35         O36   2.434       .  S
Zr35         O37   2.435       .  S
Zr35         O39   2.381       .  S
Zr35         O38   2.369       .  S
Zr35         O63   2.370       .  S
Zr35         O65   2.372       .  S
O36          H77   0.989       .  S
O36          H80   0.990       .  S
O37          H70   0.990       .  S
O38         Zr58   2.372       .  S
O39         Zr59   2.397       .  S
O39          H66   0.964       .  S
O40         Zr52   2.444       .  S
O40          C42   1.288       .  A
O41         Zr59   2.452       .  S
O41          C42   1.292       .  A
C42         C905   1.519       .  S
O43         Zr55   2.460       .  S
O43          C45   1.291       .  A
O44         Zr58   2.411       .  S
O44          C45   1.284       .  A
C45        C1024   1.509       .  S
O46         Zr55   2.446       .  S
O46          C48   1.289       .  A
O47         Zr59   2.448       .  S
O47          C48   1.291       .  A
C48         C793   1.493       .  S
O49         Zr52   2.454       .  S
O49          C51   1.290       .  A
O50         Zr58   2.431       .  S
O50          C51   1.287       .  A
C51         C688   1.490       .  S
Zr52         O53   2.432       .  S
Zr52         O54   2.433       .  S
Zr52         O60   2.375       .  S
Zr52         O61   2.363       .  S
Zr52         O64   2.376       .  S
Zr52         O62   2.378       .  S
O53          H73   0.990       .  S
O53          H78   0.989       .  S
O54          H74   0.990       .  S
Zr55         O56   2.434       .  S
Zr55         O57   2.435       .  S
Zr55         O61   2.373       .  S
Zr55         O60   2.376       .  S
Zr55         O65   2.378       .  S
Zr55         O63   2.367       .  S
O56          H72   0.990       .  S
O57          H71   0.990       .  S
O57          H81   0.989       .  S
Zr58         O61   2.372       .  S
Zr58         O63   2.382       .  S
Zr58         O64   2.380       .  S
Zr59         O60   2.391       .  S
Zr59         O62   2.390       .  S
Zr59         O65   2.393       .  S
O60          H68   0.975       .  S
O63          H67   0.973       .  S
O64          H69   0.968       .  S
O82         Zr94   2.450       .  S
O82          C84   1.290       .  A
O83        Zr120   2.441       .  S
O83          C84   1.290       .  A
C84         C597   1.498       .  S
O85         Zr97   2.455       .  S
O85          C87   1.290       .  A
O86        Zr121   2.417       .  S
O86          C87   1.285       .  A
C87         C653   1.509       .  S
O88         Zr97   2.436       .  S
O88          C90   1.287       .  A
O89        Zr120   2.424       .  S
O89          C90   1.286       .  A
C90        C1157   1.475       .  S
O91         Zr94   2.462       .  S
O91          C93   1.291       .  A
O92        Zr121   2.418       .  S
O92          C93   1.285       .  A
C93         C996   1.494       .  S
Zr94         O95   2.436       .  S
Zr94         O96   2.425       .  S
Zr94        O100   2.371       .  S
Zr94        O101   2.371       .  S
Zr94        O124   2.368       .  S
Zr94        O126   2.386       .  S
O95         H138   0.990       .  S
O96         H137   0.989       .  S
O96         H141   0.989       .  S
Zr97         O98   2.436       .  S
Zr97         O99   2.435       .  S
Zr97        O101   2.366       .  S
Zr97        O100   2.373       .  S
Zr97        O125   2.372       .  S
Zr97        O127   2.368       .  S
O98         H139   0.990       .  S
O98         H142   0.990       .  S
O99         H132   0.990       .  S
O100       Zr120   2.386       .  S
O101       Zr121   2.379       .  S
O101        H128   0.968       .  S
O102       Zr114   2.463       .  S
O102        C104   1.292       .  A
O103       Zr121   2.423       .  S
O103        C104   1.286       .  A
C104        C632   1.515       .  S
O105       Zr117   2.442       .  S
O105        C107   1.288       .  A
O106       Zr120   2.448       .  S
O106        C107   1.291       .  A
C107        C569   1.491       .  S
O108       Zr117   2.463       .  S
O108        C110   1.291       .  A
O109       Zr121   2.411       .  S
O109        C110   1.284       .  A
C110        C968   1.492       .  S
O111       Zr114   2.463       .  S
O111        C113   1.292       .  A
O112       Zr120   2.429       .  S
O112        C113   1.287       .  A
C113       C1136   1.498       .  S
Zr114       O115   2.434       .  S
Zr114       O116   2.433       .  S
Zr114       O122   2.373       .  S
Zr114       O123   2.373       .  S
Zr114       O126   2.371       .  S
Zr114       O124   2.375       .  S
O115        H135   0.990       .  S
O115        H140   0.990       .  S
O116        H136   0.990       .  S
Zr117       O118   2.434       .  S
Zr117       O119   2.434       .  S
Zr117       O123   2.376       .  S
Zr117       O122   2.374       .  S
Zr117       O127   2.368       .  S
Zr117       O125   2.382       .  S
O118        H134   0.990       .  S
O119        H133   0.989       .  S
O119        H143   0.990       .  S
Zr120       O123   2.381       .  S
Zr120       O125   2.393       .  S
Zr120       O126   2.393       .  S
Zr121       O122   2.383       .  S
Zr121       O124   2.376       .  S
Zr121       O127   2.378       .  S
O122        H130   0.965       .  S
O125        H129   0.968       .  S
O126        H131   0.962       .  S
O144       Zr156   2.458       .  S
O144        C146   1.290       .  A
O145      Zr1362   2.439       .  S
O145        C146   1.289       .  A
C146        C765   1.493       .  S
O147       Zr159   2.466       .  S
O147        C149   1.293       .  A
O148      Zr2543   2.431   1_455  S
O148        C149   1.287       .  A
C149       C1644   1.503       .  S
O150       Zr159   2.430       .  S
O150        C152   1.286       .  A
O151      Zr2542   2.455   1_465  S
O151        C152   1.293       .  A
C152        C884   1.494       .  S
O153       Zr156   2.449       .  S
O153        C155   1.290       .  A
O154      Zr1363   2.412       .  S
O154        C155   1.285       .  A
C155        C548   1.487       .  S
Zr156       O158   2.435       .  S
Zr156      O2517   2.432       .  S
Zr156       O186   2.376       .  S
Zr156       O188   2.367       .  S
Zr156      O2522   2.373       .  S
Zr156      O2523   2.380       .  S
O157      Zr2516   2.432   1_455  S
O157        H200   0.990       .  S
O158        H199   0.990       .  S
O158        H203   0.990       .  S
Zr159       O161   2.431   1_565  S
Zr159      O1340   2.434       .  S
Zr159       O187   2.383   1_565  S
Zr159       O189   2.365   1_565  S
Zr159      O1343   2.364       .  S
Zr159      O1342   2.380       .  S
O160      Zr1339   2.436       .  S
O160        H201   0.990       .  S
O160        H204   0.990       .  S
O161        H194   0.990       .  S
O162      Zr2516   2.377   1_455  S
O162      Zr1339   2.378       .  S
O162      Zr3722   2.389   1_455  S
O163      Zr2516   2.376   1_455  S
O163      Zr1339   2.363       .  S
O163      Zr3723   2.382   1_455  S
O163        H190   0.962       .  S
O164       Zr176   2.458       .  S
O164        C166   1.291       .  A
O165       Zr183   2.422       .  S
O165        C166   1.287       .  A
C166        C485   1.500       .  S
O167       Zr179   2.454       .  S
O167        C169   1.291       .  A
O168       Zr182   2.437       .  S
O168        C169   1.289       .  A
C169        C737   1.502       .  S
O170       Zr179   2.451       .  S
O170        C172   1.290       .  A
O171       Zr183   2.425       .  S
O171        C172   1.287       .  A
C172        C520   1.499       .  S
O173       Zr176   2.431       .  S
O173        C175   1.287       .  A
O174       Zr182   2.456       .  S
O174        C175   1.293       .  A
C175        C856   1.503       .  S
Zr176       O177   2.434       .  S
Zr176      O1358   2.432   1_545  S
Zr176       O184   2.365       .  S
Zr176       O185   2.378       .  S
Zr176      O1368   2.379   1_545  S
Zr176      O1366   2.370   1_545  S
O177        H197   0.990       .  S
O177        H202   0.990       .  S
O178      Zr1356   2.434       .  S
O178        H198   0.990       .  S
Zr179       O180   2.433       .  S
Zr179      O2541   2.433       .  S
Zr179       O185   2.372       .  S
Zr179       O184   2.373       .  S
Zr179      O2549   2.380       .  S
Zr179      O2547   2.371       .  S
O180        H196   0.990       .  S
O181      Zr2539   2.434       .  S
O181        H195   0.990       .  S
O181        H205   0.990       .  S
Zr182      O1325   2.432   1_545  S
Zr182      O2511   2.459   1_545  S
Zr182       O185   2.388       .  S
Zr182      O3702   2.390   1_545  S
Zr182      O2547   2.389       .  S
Zr182      O1368   2.393   1_545  S
Zr183      O2508   2.427   1_545  S
Zr183      O1334   2.426   1_545  S
Zr183       O184   2.381       .  S
Zr183      O3703   2.380   1_545  S
Zr183      O1366   2.382   1_545  S
Zr183      O2549   2.381       .  S
O184        H192   0.961       .  S
O186      Zr1356   2.370       .  S
O186      Zr1363   2.381       .  S
O187      Zr2539   2.361       .  S
O187      Zr2542   2.390   1_455  S
O187        H191   0.966       .  S
O188      Zr1356   2.381       .  S
O188      Zr1362   2.389       .  S
O188        H193   0.967       .  S
O189      Zr2539   2.374       .  S
O189      Zr2543   2.376   1_445  S
O206       Zr218   2.435       .  S
O206        C208   1.287       .  A
O207      Zr2604   2.448   1_455  S
O207        C208   1.291       .  A
C208       C1101   1.490       .  S
O209       Zr221   2.438       .  S
O209        C211   1.287       .  A
O210      Zr1425   2.407       .  S
O210        C211   1.284       .  A
C211        C373   1.490       .  S
O212       Zr221   2.443       .  S
O212        C214   1.289       .  A
O213      Zr1424   2.442       .  S
O213        C214   1.290       .  A
C214        C289   1.500       .  S
O215       Zr218   2.469   1_545  S
O215        C217   1.293       .  A
O216      Zr2605   2.419   1_455  S
O216        C217   1.285       .  A
C217       C1588   1.513       .  S
Zr218       O220   2.435   1_565  S
Zr218      O1399   2.434       .  S
Zr218       O248   2.369   1_565  S
Zr218       O250   2.373   1_565  S
Zr218      O1404   2.382       .  S
Zr218      O1405   2.362       .  S
O219      Zr1398   2.435       .  S
O219        H262   0.990       .  S
O220        H261   0.990       .  S
O220        H265   0.990       .  S
Zr221       O223   2.433       .  S
Zr221      O2582   2.433       .  S
Zr221       O249   2.369       .  S
Zr221       O251   2.374       .  S
Zr221      O2585   2.373       .  S
Zr221      O2584   2.369       .  S
O222      Zr2581   2.434       .  S
O222        H263   0.990       .  S
O222        H266   0.990       .  S
O223        H256   0.990       .  S
O224      Zr1398   2.377       .  S
O224      Zr2581   2.373       .  S
O224      Zr3784   2.389   1_455  S
O225      Zr1398   2.364       .  S
O225      Zr2581   2.373       .  S
O225      Zr3785   2.377   1_455  S
O225        H252   0.960       .  S
O226       Zr238   2.459       .  S
O226        C228   1.291       .  A
O227       Zr245   2.414       .  S
O227        C228   1.285       .  A
C228        C345   1.495       .  S
O229       Zr241   2.434       .  S
O229        C231   1.286       .  A
O230       Zr244   2.452   1_545  S
O230        C231   1.292       .  A
C231       C1073   1.488       .  S
O232       Zr241   2.467   1_565  S
O232        C234   1.292   1_565  A
O233       Zr245   2.422       .  S
O233        C234   1.286       .  A
C234        C436   1.513       .  S
O235       Zr238   2.452       .  S
O235        C237   1.291       .  A
O236       Zr244   2.424   1_545  S
O236        C237   1.286       .  A
C237        C317   1.497       .  S
Zr238       O239   2.434       .  S
Zr238      O2600   2.428       .  S
Zr238       O246   2.374       .  S
Zr238       O247   2.374       .  S
Zr238      O2610   2.374       .  S
Zr238      O2608   2.372       .  S
O239        H259   0.990       .  S
O239        H264   0.990       .  S
O240      Zr2598   2.428   1_455  S
O240        H260   0.990       .  S
Zr241       O242   2.433       .  S
Zr241      O1423   2.435   1_545  S
Zr241       O247   2.382       .  S
Zr241       O246   2.367       .  S
Zr241      O1431   2.364   1_545  S
Zr241      O1429   2.380   1_545  S
O242        H258   0.990       .  S
O243      Zr1421   2.434       .  S
O243        H257   0.990       .  S
O243        H267   0.990       .  S
Zr244      O2567   2.444       .  S
Zr244      O1393   2.432       .  S
Zr244       O247   2.387   1_565  S
Zr244      O3764   2.386       .  S
Zr244      O1429   2.391       .  S
Zr244      O2610   2.390   1_565  S
Zr245      O1390   2.405   1_545  S
Zr245      O2576   2.419   1_545  S
Zr245       O246   2.378       .  S
Zr245      O3765   2.380   1_545  S
Zr245      O2608   2.375       .  S
Zr245      O1431   2.375   1_545  S
O246        H254   0.968       .  S
O248      Zr2598   2.375   1_455  S
O248      Zr2605   2.377   1_455  S
O249      Zr1421   2.376       .  S
O249      Zr1424   2.385       .  S
O249        H253   0.968       .  S
O250      Zr2598   2.377   1_455  S
O250      Zr2604   2.396   1_445  S
O250        H255   0.966       .  S
O251      Zr1421   2.365       .  S
O251      Zr1425   2.372       .  S
C268        C269   1.413       .  A
C268        C273   1.400       .  A
C268        C541   1.492       .  S
C269        C270   1.399       .  A
C269        C380   1.485       .  S
C270        C271   1.397       .  A
C270        H275   1.086       .  S
C271        C272   1.417       .  A
C271        C352   1.493       .  S
C272        C273   1.405       .  A
C272        C513   1.491   1_655  S
C273        H274   1.086       .  S
C276        C277   1.420       .  A
C276        C281   1.408       .  A
C276        C492   1.495       .  S
C277        C278   1.402       .  A
C277        C429   1.504       .  S
C278        C279   1.404       .  A
C278        H283   1.086       .  S
C279        C280   1.419       .  A
C279        C401   1.493       .  S
C280        C281   1.405       .  A
C280        C457   1.506       .  S
C281        H282   1.085       .  S
C284        C296   1.614       .  S
C284        C324   1.613       .  S
C284        C604   1.617       .  S
C284       C2936   1.610       .  S
C285        C286   1.411       .  A
C285        C290   1.415       .  A
C285       C2663   1.451       .  S
C286        C287   1.410       .  A
C286        C291   1.504       .  S
C287        C288   1.411       .  A
C287        C292   1.451       .  S
C288        C289   1.419       .  A
C288        C304   1.451       .  S
C289        C290   1.420       .  A
C290       C2653   1.449       .  S
C291        C298   1.404       .  A
C291       C2654   1.398       .  A
C292        N309   1.157       .  T
C293       C2650   1.449       .  S
C293        N311   1.157       .  T
C294        C295   1.410       .  A
C294       C2651   1.397   1_455  A
C294        C299   1.456       .  S
C295       C2656   1.451   1_455  A
C295        C301   1.451       .  S
C296        C297   1.446       .  A
C296       C2655   1.453       .  A
C297        C298   1.421       .  A
C297        C300   1.451       .  S
C298        C302   1.453       .  S
C299        N306   1.157       .  T
C300        N307   1.157       .  T
C301        N305   1.157       .  T
C302        N308   1.157       .  T
C303       C2645   1.452       .  S
C303        N312   1.157       .  T
C304        N310   1.157       .  T
C313        C314   1.412       .  A
C313        C318   1.409       .  A
C313        C331   1.452       .  S
C314        C315   1.414       .  A
C314        C319   1.506       .  S
C315        C316   1.413       .  A
C315        C320   1.450       .  S
C316        C317   1.418       .  A
C316        C332   1.450       .  S
C317        C318   1.417       .  A
C318        C321   1.450       .  S
C319        C326   1.401       .  A
C319       C2682   1.401       .  A
C320       N2697   1.157       .  T
C321        N339   1.157       .  T
C322        C323   1.417   1_455  A
C322       C2679   1.402       .  A
C322        C327   1.454       .  S
C323       C2684   1.450       .  A
C323        C329   1.449       .  S
C324        C325   1.448       .  A
C324       C2683   1.451       .  A
C325        C326   1.412       .  A
C325        C328   1.445       .  S
C326        C330   1.456       .  S
C327        N334   1.157       .  T
C328        N335   1.157       .  T
C329        N333   1.157       .  T
C330        N336   1.157       .  T
C331        N340   1.157       .  T
C332        N338   1.158       .  T
N337       C2680   1.157       .  T
C341        C346   1.414       .  A
C341       C2702   1.413   1_455  A
C341        C359   1.451       .  S
C342        C343   1.406       .  A
C342       C2701   1.412       .  A
C342        C347   1.496       .  S
C343        C344   1.407       .  A
C343        C348   1.453       .  S
C344        C345   1.420       .  A
C344        C360   1.448       .  S
C345       C2706   1.418       .  A
C346       C2705   1.416   1_455  A
C346        C349   1.450       .  S
C347        C350   1.410       .  A
C347       C2714   1.409       .  A
C348        N365   1.157       .  T
C349        N367   1.157       .  T
C350        C351   1.408       .  A
C350        C355   1.452       .  S
C351       C2712   1.419       .  A
C351        C357   1.453       .  S
C352        C353   1.413   1_655  A
C352       C2711   1.419       .  A
C353        C354   1.413       .  A
C353        C356   1.448       .  S
C354       C2707   1.412   1_455  A
C354        C358   1.451       .  S
C355        N362   1.157       .  T
C356        N363   1.157       .  T
C357        N361   1.157       .  T
C358        N364   1.157       .  T
C359        N368   1.157       .  T
C360        N366   1.156       .  T
C369        C370   1.408   1_455  A
C369        C374   1.404       .  A
C369        C387   1.453       .  S
C370       C2731   1.412       .  A
C370        C375   1.489       .  S
C371        C372   1.407       .  A
C371       C2730   1.407       .  A
C371        C376   1.452       .  S
C372        C373   1.420       .  A
C372        C388   1.450       .  S
C373       C2734   1.422       .  A
C374       C2733   1.415   1_455  A
C374        C377   1.449       .  S
C375        C382   1.408   1_655  A
C375       C2738   1.411       .  A
C376        N393   1.157       .  T
C377        N395   1.156       .  T
C378        C379   1.409       .  A
C378       C2735   1.409       .  A
C378        C383   1.452       .  S
C379       C2740   1.413       .  A
C379        C385   1.448       .  S
C380        C381   1.419   1_655  A
C380       C2739   1.413       .  A
C381        C382   1.402       .  A
C381        C384   1.454       .  S
C382        C386   1.453       .  S
C383        N390   1.157       .  T
C384        N391   1.157       .  T
C385        N389   1.157       .  T
C386        N392   1.157       .  T
C387        N396   1.157       .  T
C388        N394   1.157       .  T
C397        C398   1.411       .  A
C397        C402   1.414       .  A
C397        C415   1.450       .  S
C398       C1579   1.408       .  A
C398        C403   1.496       .  S
C399        C400   1.410       .  A
C399       C1578   1.410       .  A
C399        C404   1.450       .  S
C400       C1581   1.418       .  A
C400        C416   1.453       .  S
C401        C402   1.414       .  A
C401       C1580   1.419       .  A
C402        C405   1.449       .  S
C403        C410   1.409       .  A
C403       C1586   1.405       .  A
C404        N421   1.157       .  T
C405        N423   1.157       .  T
C406        C407   1.415       .  A
C406       C1583   1.405       .  A
C406        C411   1.452       .  S
C407       C1588   1.428       .  A
C407        C413   1.450       .  S
C408        C409   1.424       .  A
C408       C1587   1.426       .  A
C408       C1397   1.507       .  S
C409        C410   1.413       .  A
C409        C412   1.451       .  S
C410        C414   1.452       .  S
C411        N418   1.157       .  T
C412        N419   1.157       .  T
C413        N417   1.157       .  T
C414        N420   1.157       .  T
C415        N424   1.157       .  T
C416        N422   1.158       .  T
C425        C426   1.410       .  A
C425        C430   1.411       .  A
C425        C443   1.451       .  S
C426       C1607   1.413       .  A
C426       C1611   1.507       .  S
C427        C428   1.414       .  A
C427       C1606   1.412       .  A
C427        C432   1.450       .  S
C428       C1609   1.414       .  A
C428        C444   1.448       .  S
C429        C430   1.420       .  A
C429       C1608   1.416       .  A
C430        C433   1.452       .  S
C431        C438   1.405   1_545  A
C431       C1614   1.409       .  A
C431       C1606   1.501       .  S
C432        N449   1.157       .  T
C433        N451   1.157       .  T
C434       C1611   1.413       .  A
C434       C1615   1.418       .  A
C434        C439   1.450       .  S
C435        C436   1.424       .  A
C435       C1614   1.415       .  A
C435        C441   1.450       .  S
C436        C437   1.428   1_545  A
C437        C438   1.414       .  A
C437        C440   1.448       .  S
C438        C442   1.452       .  S
C439        N446   1.157       .  T
C440        N447   1.156       .  T
C441       N1625   1.157       .  T
C442        N448   1.157       .  T
C443        N452   1.157       .  T
C444        N450   1.157       .  T
N445       C1621   1.157       .  T
C453        C458   1.415       .  A
C453       C1634   1.413   1_545  A
C453        C471   1.451       .  S
C454        C455   1.410       .  A
C454       C1633   1.413       .  A
C454        C459   1.509       .  S
C455        C456   1.413       .  A
C455        C460   1.451       .  S
C456        C457   1.421       .  A
C456        C472   1.452       .  S
C457       C1638   1.416       .  A
C458       C1637   1.415       .  A
C458        C461   1.447       .  S
C459        C462   1.411       .  A
C459       C1646   1.412       .  A
C460        N477   1.157       .  T
C461        N479   1.157       .  T
C462        C463   1.417       .  A
C462        C467   1.451       .  S
C463        C464   1.422       .  A
C463        C469   1.449       .  S
C464       C1645   1.418       .  A
C464       C1329   1.506       .  S
C465        C466   1.414       .  A
C465       C1644   1.418   1_545  A
C465        C468   1.449       .  S
C466       C1639   1.411   1_545  A
C466        C470   1.452       .  S
C467        N474   1.157       .  T
C468        N475   1.157       .  T
C469        N473   1.157       .  T
C470        N476   1.157       .  T
C471        N480   1.157       .  T
C472        N478   1.157       .  T
C481        C486   1.413       .  A
C481       C1662   1.414       .  A
C481        C499   1.451       .  S
C482        C483   1.408       .  A
C482       C1661   1.410   1_545  A
C482       C1667   1.499       .  S
C483        C484   1.412       .  A
C483        C488   1.452       .  S
C484        C485   1.421       .  A
C484        C500   1.450       .  S
C485       C1666   1.420   1_545  A
C486       C1665   1.414       .  A
C486        C489   1.451       .  S
C487        C490   1.412       .  A
C487        C494   1.412       .  A
C487       C1662   1.503       .  S
C488        N505   1.157       .  T
C489        N507   1.157       .  T
C490        C491   1.410       .  A
C490       C1675   1.452       .  S
C491        C492   1.419       .  A
C491        C497   1.453       .  S
C492        C493   1.413       .  A
C493        C494   1.412       .  A
C493        C496   1.448       .  S
C494        C498   1.450       .  S
C495       C1670   1.451       .  S
C495        N502   1.157       .  T
C496        N503   1.157       .  T
C497        N501   1.157       .  T
C498        N504   1.157       .  T
C499        N508   1.157       .  T
C500        N506   1.157       .  T
C509        C514   1.405       .  A
C509       C2870   1.406       .  A
C509        C527   1.452       .  S
C510        C511   1.409       .  A
C510       C2869   1.407       .  A
C510        C515   1.489       .  S
C511        C512   1.409       .  A
C511        C516   1.451       .  S
C512       C2873   1.412       .  A
C512        C528   1.449       .  S
C513        C514   1.421       .  A
C513       C2872   1.414   1_455  A
C514        C517   1.453       .  S
C515        C522   1.402       .  A
C515       C2878   1.408       .  A
C516        N533   1.157       .  T
C517        N535   1.157       .  T
C518        C519   1.409       .  A
C518       C2875   1.407   1_655  A
C518        C523   1.453       .  S
C519       C2880   1.422   1_655  A
C519        C525   1.449       .  S
C520        C521   1.422       .  A
C520       C2879   1.422       .  A
C521        C522   1.408       .  A
C521        C524   1.448       .  S
C522        C526   1.452       .  S
C523        N530   1.157       .  T
C524        N531   1.156       .  T
C525        N529   1.157       .  T
C526        N532   1.157       .  T
C527        N536   1.157       .  T
C528        N534   1.157       .  T
C537        C542   1.413       .  A
C537       C2898   1.411   1_455  A
C537        C555   1.451       .  S
C538        C539   1.409       .  A
C538       C2897   1.410       .  A
C538        C543   1.493       .  S
C539        C540   1.406       .  A
C539        C544   1.452       .  S
C540       C2901   1.419       .  A
C540        C556   1.453       .  S
C541        C542   1.415   1_655  A
C541       C2900   1.418       .  A
C542        C545   1.448       .  S
C543        C550   1.412       .  A
C543       C2906   1.407       .  A
C544        N561   1.157       .  T
C545        N563   1.157       .  T
C546        C547   1.410       .  A
C546       C2903   1.407       .  A
C546        C551   1.452       .  S
C547       C2908   1.421       .  A
C547        C553   1.450       .  S
C548        C549   1.417       .  A
C548       C2907   1.416       .  A
C549        C550   1.412       .  A
C549        C552   1.451       .  S
C550        C554   1.451       .  S
C551        N558   1.157       .  T
C552        N559   1.157       .  T
C553        N557   1.157       .  T
C554        N560   1.157       .  T
C555        N564   1.157       .  T
C556        N562   1.157       .  T
C565        C566   1.415       .  A
C565        C570   1.415       .  A
C565        C583   1.451       .  S
C566        C567   1.415       .  A
C566        C571   1.511       .  S
C567        C568   1.411       .  A
C567        C572   1.451       .  S
C568        C569   1.414       .  A
C568        C584   1.451       .  S
C569        C570   1.413       .  A
C570        C573   1.447       .  S
C571        C574   1.401       .  A
C571        C578   1.403       .  A
C572        N589   1.157       .  T
C573        N591   1.156       .  T
C574        C575   1.418       .  A
C574        C579   1.455       .  S
C575        C576   1.450       .  A
C575        C581   1.451       .  S
C576       C2644   1.611   1_455  S
C576        C577   1.448       .  A
C577        C578   1.420       .  A
C577        C580   1.445   1_455  S
C578        C582   1.457       .  S
C579        N586   1.157       .  T
C580       N2947   1.156       .  T
C581        N585   1.157       .  T
C582        N588   1.157       .  T
C583        N592   1.157       .  T
C584        N590   1.157       .  T
N587       C2940   1.156       .  T
C593        C594   1.414       .  A
C593        C598   1.417       .  A
C593        C611   1.450       .  S
C594        C595   1.412       .  A
C594        C599   1.509       .  S
C595        C596   1.411       .  A
C595        C600   1.451       .  S
C596        C597   1.417       .  A
C596        C612   1.450       .  S
C597        C598   1.417       .  A
C598        C601   1.450       .  S
C599        C602   1.400       .  A
C599        C606   1.400       .  A
C600        N617   1.157       .  T
C601        N619   1.157       .  T
C602        C603   1.423       .  A
C602        C607   1.456       .  S
C603        C604   1.455       .  A
C603        C609   1.449       .  S
C604        C605   1.450       .  A
C605        C606   1.420       .  A
C605        C608   1.448       .  S
C606        C610   1.455       .  S
C607        N614   1.157       .  T
C608        N615   1.157       .  T
C609        N613   1.158       .  T
C610        N616   1.157       .  T
C611        N620   1.157       .  T
C612        N618   1.157       .  T
C621        C622   1.414       .  A
C621        C626   1.418       .  A
C621        C639   1.450       .  S
C622        C623   1.412       .  A
C622        C627   1.508       .  S
C623        C624   1.409       .  A
C623        C628   1.452       .  S
C624        C625   1.415       .  A
C624        C640   1.451       .  S
C625        C626   1.415       .  A
C626        C629   1.449       .  S
C627        C630   1.409       .  A
C627        C634   1.411       .  A
C628        N645   1.157       .  T
C629        N647   1.157       .  T
C630        C631   1.417       .  A
C630        C635   1.451       .  S
C631        C632   1.428       .  A
C631        C637   1.451       .  S
C632        C633   1.424       .  A
C633        C634   1.413       .  A
C633        C636   1.451       .  S
C634        C638   1.453       .  S
C635        N642   1.157       .  T
C636        N643   1.157       .  T
C637        N641   1.157       .  T
C638        N644   1.157       .  T
C639        N648   1.157       .  T
C640        N646   1.157       .  T
C649        C650   1.407       .  A
C649        C654   1.413       .  A
C649        C667   1.452       .  S
C650        C651   1.409       .  A
C650        C655   1.499       .  S
C651        C652   1.411       .  A
C651        C656   1.453       .  S
C652        C653   1.424       .  A
C652        C668   1.450       .  S
C653        C654   1.427       .  A
C654        C657   1.452       .  S
C655        C658   1.411       .  A
C655        C662   1.411       .  A
C656        N673   1.157       .  T
C657        N675   1.157       .  T
C658        C659   1.414       .  A
C658        C663   1.451       .  S
C659        C660   1.414       .  A
C659        C665   1.449       .  S
C660        C661   1.416       .  A
C661        C662   1.408       .  A
C661        C664   1.452       .  S
C662        C666   1.452       .  S
C663        N670   1.157       .  T
C664        N671   1.157       .  T
C665        N669   1.157       .  T
C666        N672   1.157       .  T
C667        N676   1.157       .  T
C668        N674   1.157       .  T
C677        C678   1.415       .  A
C677        C682   1.415       .  A
C677        C695   1.451       .  S
C678        C679   1.412       .  A
C678        C683   1.511       .  S
C679        C680   1.414       .  A
C679        C684   1.452       .  S
C680        C681   1.417       .  A
C680        C696   1.447       .  S
C681        C682   1.416       .  A
C682        C685   1.451       .  S
C683        C686   1.418       .  A
C683        C690   1.414       .  A
C684        N701   1.157       .  T
C685        N703   1.157       .  T
C686        C687   1.413       .  A
C686        C691   1.451       .  S
C687        C688   1.412       .  A
C687        C693   1.451       .  S
C688        C689   1.413       .  A
C689        C690   1.413       .  A
C689        C692   1.448       .  S
C690        C694   1.450       .  S
C691        N698   1.157       .  T
C692        N699   1.157       .  T
C693        N697   1.157       .  T
C694        N700   1.157       .  T
C695        N704   1.157       .  T
C696       N1882   1.157       .  T
N702       C1876   1.157       .  T
C705        C706   1.408       .  A
C705        C710   1.410       .  A
C705        C723   1.451       .  S
C706        C707   1.410       .  A
C706        C711   1.498       .  S
C707        C708   1.413       .  A
C707        C712   1.452       .  S
C708        C709   1.417       .  A
C708        C724   1.446       .  S
C709        C710   1.421       .  A
C710        C713   1.452       .  S
C711        C714   1.414       .  A
C711        C718   1.410       .  A
C712        N729   1.157       .  T
C713        N731   1.157       .  T
C714        C715   1.411       .  A
C714        C719   1.451       .  S
C715        C716   1.413       .  A
C715        C721   1.451       .  S
C716        C717   1.415       .  A
C717        C718   1.409       .  A
C717        C720   1.452       .  S
C718        C722   1.450       .  S
C719        N726   1.157       .  T
C720        N727   1.157       .  T
C721        N725   1.157       .  T
C722        N728   1.157       .  T
C723        N732   1.157       .  T
C724        N730   1.157       .  T
C733        C734   1.413       .  A
C733        C738   1.414       .  A
C733        C751   1.451       .  S
C734        C735   1.412       .  A
C734        C739   1.510       .  S
C735        C736   1.415       .  A
C735        C740   1.451       .  S
C736        C737   1.419       .  A
C736        C752   1.450       .  S
C737        C738   1.419       .  A
C738        C741   1.450       .  S
C739        C742   1.402       .  A
C739       C3106   1.400       .  A
C740        N757   1.157       .  T
C741        N759   1.157       .  T
C742        C743   1.420       .  A
C742        C747   1.456       .  S
C743        C744   1.450       .  A
C743        C749   1.448       .  S
C744       C3105   1.452       .  A
C745        C746   1.422       .  A
C745       C3104   1.452   1_455  A
C745        C748   1.446       .  S
C746       C3099   1.401   1_455  A
C746        C750   1.456       .  S
C747        N754   1.157       .  T
C748        N755   1.156       .  T
C749        N753   1.157       .  T
C750        N756   1.157       .  T
C751       N3120   1.157       .  T
C752        N758   1.157       .  T
N760       C3111   1.157       .  T
C761        C766   1.414       .  A
C761       C3122   1.413   1_455  A
C761        C779   1.451       .  S
C762        C763   1.415       .  A
C762       C3121   1.415       .  A
C762        C767   1.514       .  S
C763        C764   1.414       .  A
C763        C768   1.449       .  S
C764        C765   1.412       .  A
C764        C780   1.451       .  S
C765       C3126   1.413       .  A
C766       C3125   1.413   1_455  A
C766        C769   1.447       .  S
C767        C774   1.401       .  A
C767       C3130   1.402       .  A
C768        N785   1.157       .  T
C769        N787   1.156       .  T
C770        C771   1.424       .  A
C770       C3127   1.402       .  A
C770        C775   1.455       .  S
C771       C3132   1.451       .  A
C771        C777   1.449       .  S
C772        C773   1.452       .  A
C772       C3131   1.451       .  A
C773        C774   1.421       .  A
C773        C776   1.447       .  S
C774        C778   1.457       .  S
C775        N782   1.157       .  T
C776        N783   1.157       .  T
C777        N781   1.157       .  T
C778        N784   1.157       .  T
C779        N788   1.157       .  T
C780        N786   1.157       .  T
C789        C790   1.414       .  A
C789        C794   1.414       .  A
C789        C807   1.451       .  S
C790        C791   1.418       .  A
C790        C795   1.516       .  S
C791        C792   1.418       .  A
C791        C796   1.448       .  S
C792        C793   1.412       .  A
C792        C808   1.451       .  S
C793        C794   1.414       .  A
C794        C797   1.451       .  S
C795        C798   1.402       .  A
C795        C802   1.404       .  A
C796        N813   1.157       .  T
C797        N815   1.157       .  T
C798        C799   1.424       .  A
C798        C803   1.453       .  S
C799        C800   1.451       .  A
C799        C805   1.448       .  S
C800       C2371   1.621   1_455  S
C800        C801   1.450       .  A
C801        C802   1.420       .  A
C801        C804   1.449   1_455  S
C802        C806   1.455       .  S
C803        N810   1.157       .  T
C804       N3171   1.158       .  T
C805        N809   1.157       .  T
C806        N812   1.157       .  T
C807        N816   1.157       .  T
C808        N814   1.157       .  T
N811       C3164   1.158       .  T
C817        C818   1.415       .  A
C817        C822   1.412       .  A
C817        C835   1.452       .  S
C818        C819   1.415       .  A
C818        C823   1.511       .  S
C819        C820   1.414       .  A
C819        C824   1.450       .  S
C820        C821   1.412       .  A
C820        C836   1.448       .  S
C821        C822   1.415       .  A
C822        C825   1.450       .  S
C823        C826   1.401       .  A
C823        C830   1.400       .  A
C824        N841   1.157       .  T
C825        N843   1.157       .  T
C826        C827   1.420       .  A
C826        C831   1.456       .  S
C827        C828   1.449       .  A
C827        C833   1.449       .  S
C828        C829   1.454       .  A
C829        C830   1.420       .  A
C829        C832   1.448       .  S
C830        C834   1.457       .  S
C831        N838   1.157       .  T
C832        N839   1.157       .  T
C833        N837   1.157       .  T
C834        N840   1.157       .  T
C835        N844   1.157       .  T
C836        N842   1.157       .  T
C845        C846   1.398       .  A
C845        C850   1.415       .  A
C845        C863   1.457       .  S
C846       C2027   1.401   1_545  A
C846        C851   1.505       .  S
C847        C848   1.424       .  A
C847       C2026   1.404       .  A
C847        C852   1.453       .  S
C848       C2029   1.448       .  A
C848        C864   1.448       .  S
C849       C1190   1.616       .  S
C849        C850   1.453       .  A
C849       C2028   1.448   1_545  A
C850        C853   1.449       .  S
C851        C858   1.409       .  A
C851       C2034   1.411   1_545  A
C852        N869   1.157       .  T
C853        N871   1.157       .  T
C854        C855   1.417       .  A
C854       C2031   1.412       .  A
C854        C859   1.448       .  S
C855       C2036   1.417       .  A
C855        C861   1.449       .  S
C856        C857   1.421       .  A
C856       C2035   1.418   1_545  A
C857        C858   1.412       .  A
C857        C860   1.451       .  S
C858        C862   1.452       .  S
C859        N866   1.157       .  T
C860        N867   1.157       .  T
C861        N865   1.157       .  T
C862        N868   1.157       .  T
C863        N872   1.157       .  T
C864        N870   1.157       .  T
C873        C874   1.401       .  A
C873        C878   1.420       .  A
C873        C891   1.454       .  S
C874       C2055   1.399   1_545  A
C874        C879   1.503       .  S
C875        C876   1.412       .  A
C875       C2054   1.398       .  A
C875        C880   1.455       .  S
C876        C877   1.447       .  A
C876        C892   1.446       .  S
C877       C2058   1.448       .  A
C878       C2057   1.448       .  A
C878        C881   1.448       .  S
C879        C882   1.410   1_545  A
C879       C2066   1.412       .  A
C880        N897   1.157       .  T
C881        N899   1.157       .  T
C882        C883   1.408       .  A
C882        C887   1.452       .  S
C883        C884   1.417       .  A
C883        C889   1.451       .  S
C884       C2065   1.416   1_565  A
C885        C886   1.412       .  A
C885       C2064   1.416       .  A
C885        C888   1.450       .  S
C886       C2059   1.411       .  A
C886        C890   1.449       .  S
C887        N894   1.157       .  T
C888        N895   1.157       .  T
C889        N893   1.157       .  T
C890        N896   1.157       .  T
C891        N900   1.157       .  T
C892        N898   1.156       .  T
C901        C902   1.409       .  A
C901        C906   1.417       .  A
C901        C919   1.451       .  S
C902        C903   1.404       .  A
C902        C907   1.503       .  S
C903        C904   1.411       .  A
C903        C908   1.455       .  S
C904        C905   1.431       .  A
C904        C920   1.449       .  S
C905        C906   1.428       .  A
C906        C909   1.451       .  S
C907        C910   1.402       .  A
C907        C914   1.400       .  A
C908        N925   1.157       .  T
C909        N927   1.158       .  T
C910        C911   1.415       .  A
C910        C915   1.455       .  S
C911        C912   1.447       .  A
C911        C917   1.451       .  S
C912       C1190   1.606       .  S
C912        C913   1.450       .  A
C913        C914   1.417       .  A
C913        C916   1.448       .  S
C914        C918   1.456       .  S
C915        N922   1.157       .  T
C916        N923   1.157       .  T
C917        N921   1.157   1_545  T
C918        N924   1.157       .  T
C919        N928   1.157       .  T
C920        N926   1.157       .  T
C929        C930   1.400       .  A
C929        C934   1.420       .  A
C929        C947   1.456       .  S
C930        C931   1.400       .  A
C930        C935   1.509       .  S
C931        C932   1.421       .  A
C931        C936   1.455       .  S
C932        C933   1.451       .  A
C932        C948   1.448       .  S
C933        C934   1.449       .  A
C934        C937   1.443       .  S
C935        C938   1.412       .  A
C935        C942   1.416       .  A
C936        N953   1.157       .  T
C937        N955   1.156       .  T
C938        C939   1.412       .  A
C938        C943   1.452       .  S
C939        C940   1.416       .  A
C939        C945   1.450       .  S
C940        C941   1.411       .  A
C941        C942   1.415       .  A
C941        C944   1.450       .  S
C942        C946   1.448       .  S
C943        N950   1.157       .  T
C944        N951   1.157       .  T
C945        N949   1.157       .  T
C946        N952   1.157       .  T
C947        N956   1.157       .  T
C948        N954   1.157       .  T
C957        C958   1.410       .  A
C957        C962   1.411       .  A
C957        C975   1.451       .  S
C958        C959   1.411       .  A
C958        C963   1.502       .  S
C959        C960   1.414       .  A
C959        C964   1.452       .  S
C960        C961   1.416       .  A
C960        C976   1.447       .  S
C961        C962   1.419       .  A
C962        C965   1.452       .  S
C963        C966   1.410       .  A
C963        C970   1.414       .  A
C964        N981   1.157       .  T
C965        N983   1.157       .  T
C966        C967   1.411       .  A
C966        C971   1.450       .  S
C967        C968   1.417       .  A
C967        C973   1.451       .  S
C968        C969   1.415       .  A
C969        C970   1.413       .  A
C969        C972   1.450       .  S
C970        C974   1.452       .  S
C971        N978   1.157       .  T
C972        N979   1.157       .  T
C973        N977   1.157       .  T
C974        N980   1.157       .  T
C975        N984   1.157       .  T
C976        N982   1.157       .  T
C985        C986   1.411       .  A
C985        C990   1.411       .  A
C985       C1003   1.452       .  S
C986        C987   1.410       .  A
C986        C991   1.500       .  S
C987        C988   1.412       .  A
C987        C992   1.452       .  S
C988        C989   1.415       .  A
C988       C1004   1.447       .  S
C989        C990   1.418       .  A
C990        C993   1.451       .  S
C991        C994   1.409       .  A
C991        C998   1.412       .  A
C992       N1009   1.157       .  T
C993       N1011   1.157       .  T
C994        C995   1.411       .  A
C994        C999   1.451       .  S
C995        C996   1.418       .  A
C995       C1001   1.448       .  S
C996        C997   1.416       .  A
C997        C998   1.412       .  A
C997       C1000   1.449       .  S
C998       C1002   1.452       .  S
C999       N1006   1.157       .  T
C1000      N1007   1.157       .  T
C1001      N1005   1.156       .  T
C1002      N1008   1.157       .  T
C1003      N1012   1.157       .  T
C1004      N1010   1.157       .  T
C1013      C1014   1.412       .  A
C1013      C1018   1.408       .  A
C1013      C1031   1.452       .  S
C1014      C1015   1.413       .  A
C1014      C1019   1.502       .  S
C1015      C1016   1.412       .  A
C1015      C1020   1.451       .  S
C1016      C1017   1.413       .  A
C1016      C1032   1.449       .  S
C1017      C1018   1.416       .  A
C1018      C1021   1.452       .  S
C1019      C1022   1.407       .  A
C1019      C1026   1.412       .  A
C1020      N1037   1.157       .  T
C1021      N1039   1.158       .  T
C1022      C1023   1.410       .  A
C1022      C1027   1.453       .  S
C1023      C1024   1.426       .  A
C1023      C1029   1.451       .  S
C1024      C1025   1.424       .  A
C1025      C1026   1.414       .  A
C1025      C1028   1.451       .  S
C1026      C1030   1.453       .  S
C1027      N1034   1.157       .  T
C1028      N1035   1.158       .  T
C1029      N1033   1.157       .  T
C1030      N1036   1.157       .  T
C1031      N1040   1.157       .  T
C1032      N1038   1.157       .  T
C1041      C1042   1.410       .  A
C1041      C1046   1.414       .  A
C1041      C1059   1.451       .  S
C1042      C1043   1.408       .  A
C1042      C1047   1.498       .  S
C1043      C1044   1.409       .  A
C1043      C1048   1.452       .  S
C1044      C1045   1.418       .  A
C1044      C1060   1.451       .  S
C1045      C1046   1.415       .  A
C1046      C1049   1.448       .  S
C1047      C1050   1.407       .  A
C1047      C1054   1.405       .  A
C1048      N1065   1.157       .  T
C1049      N1067   1.157       .  T
C1050      C1051   1.413       .  A
C1050      C1055   1.452       .  S
C1051      C1052   1.425       .  A
C1051      C1057   1.451       .  S
C1052      C1053   1.431       .  A
C1053      C1054   1.413       .  A
C1053      C1056   1.452       .  S
C1054      C1058   1.453       .  S
C1055      N1062   1.157       .  T
C1056      N1063   1.157       .  T
C1057      N1061   1.157       .  T
C1058      N1064   1.157       .  T
C1059      N1068   1.157       .  T
C1060      N1066   1.157       .  T
C1069      C1070   1.414       .  A
C1069      C1074   1.414       .  A
C1069      C1087   1.451       .  S
C1070      C2251   1.415   1_545  A
C1070      C1075   1.510       .  S
C1071      C1072   1.412       .  A
C1071      C2250   1.417       .  A
C1071      C1076   1.451       .  S
C1072      C2253   1.412       .  A
C1072      C1088   1.452       .  S
C1073      C1074   1.412       .  A
C1073      C2252   1.413   1_545  A
C1074      C1077   1.448       .  S
C1075      C1082   1.402       .  A
C1075      C2258   1.400   1_545  A
C1076      N1093   1.157       .  T
C1077      N1095   1.157       .  T
C1078      C1079   1.421       .  A
C1078      C2255   1.401       .  A
C1078      C1083   1.457       .  S
C1079      C2260   1.455       .  A
C1079      C1085   1.450       .  S
C1080      C1181   1.614   1_545  S
C1080      C1081   1.448       .  A
C1080      C2259   1.455   1_545  A
C1081      C1082   1.418       .  A
C1081      C1084   1.450       .  S
C1082      C1086   1.456       .  S
C1083      N1090   1.157       .  T
C1084      N1091   1.157       .  T
C1085      N1089   1.158       .  T
C1086      N1092   1.157       .  T
C1087      N1096   1.157       .  T
C1088      N1094   1.157       .  T
C1097      C1102   1.415       .  A
C1097      C2278   1.416       .  A
C1097      C1115   1.450       .  S
C1098      C1099   1.414   1_565  A
C1098      C2277   1.416       .  A
C1098      C1103   1.511       .  S
C1099      C1100   1.411       .  A
C1099      C1104   1.451       .  S
C1100      C1101   1.413   1_545  A
C1100      C1116   1.451       .  S
C1101      C2282   1.413       .  A
C1102      C2281   1.412       .  A
C1102      C1105   1.450       .  S
C1103      C1106   1.400       .  A
C1103      C2290   1.400       .  A
C1104      N1121   1.157       .  T
C1105      N1123   1.157       .  T
C1106      C1107   1.421       .  A
C1106      C1111   1.455       .  S
C1107      C1108   1.449       .  A
C1107      C1113   1.448       .  S
C1108      C1181   1.621       .  S
C1108      C2289   1.457       .  A
C1109      C1110   1.420       .  A
C1109      C2288   1.456       .  A
C1109      C1112   1.451       .  S
C1110      C2283   1.400       .  A
C1110      C1114   1.457       .  S
C1111      N1118   1.157       .  T
C1112      N1119   1.158       .  T
C1113      N1117   1.157       .  T
C1114      N1120   1.157       .  T
C1115      N1124   1.157       .  T
C1116      N1122   1.157       .  T
C1125      C1126   1.401       .  A
C1125      C1130   1.421       .  A
C1125      C1143   1.456       .  S
C1126      C1127   1.401       .  A
C1126      C1131   1.515       .  S
C1127      C1128   1.425       .  A
C1127      C1132   1.456       .  S
C1128      C1129   1.453       .  A
C1128      C1144   1.446       .  S
C1129      C1181   1.622   1_545  S
C1129      C1130   1.452       .  A
C1130      C1133   1.449       .  S
C1131      C1134   1.416       .  A
C1131      C1138   1.415       .  A
C1132      N1149   1.157       .  T
C1133      N1151   1.157       .  T
C1134      C1135   1.414       .  A
C1134      C1139   1.450       .  S
C1135      C1136   1.414       .  A
C1135      C1141   1.452       .  S
C1136      C1137   1.416       .  A
C1137      C1138   1.416       .  A
C1137      C1140   1.449       .  S
C1138      C1142   1.451       .  S
C1139      N1146   1.157       .  T
C1140      N1147   1.156       .  T
C1141      N1145   1.157       .  T
C1142      N1148   1.157       .  T
C1143      N1152   1.157       .  T
C1144      N1150   1.157       .  T
C1153      C1154   1.414       .  A
C1153      C1158   1.409       .  A
C1153      C1171   1.451       .  S
C1154      C1155   1.413       .  A
C1154      C1159   1.500       .  S
C1155      C1156   1.409       .  A
C1155      C1160   1.450       .  S
C1156      C1157   1.411       .  A
C1156      C1172   1.452       .  S
C1157      C1158   1.409       .  A
C1158      C1161   1.449       .  S
C1159      C1162   1.396       .  A
C1159      C1166   1.398       .  A
C1160      N1177   1.157       .  T
C1161      N1179   1.157       .  T
C1162      C1163   1.417       .  A
C1162      C1167   1.457       .  S
C1163      C1164   1.451       .  A
C1163      C1169   1.446       .  S
C1164      C1165   1.454       .  A
C1165      C1166   1.419       .  A
C1165      C1168   1.447       .  S
C1166      C1170   1.458       .  S
C1167      N1174   1.157       .  T
C1168      N1175   1.157       .  T
C1169      N1173   1.157       .  T
C1170      N1176   1.157       .  T
C1171      N1180   1.157       .  T
C1172      N1178   1.157       .  T
C1181      C2344   1.616       .  S
C1182      C1183   1.415   1_556  A
C1182      C1187   1.400       .  A
C1182      C2225   1.487       .  S
C1183      C1184   1.405       .  A
C1183      C2169   1.496       .  S
C1184      C3545   1.406       .  A
C1184      H1189   1.085       .  S
C1185      C3544   1.408   1_455  A
C1185      C1186   1.418   1_554  A
C1185      C2141   1.498       .  S
C1186      C3547   1.402   1_455  A
C1186      C2197   1.496       .  S
C1187      C3546   1.399       .  A
C1187      H1188   1.086       .  S
C1190      C2057   1.611       .  S
C1190      C2113   1.617   1_545  S
C1191      C1924   1.614       .  S
C1191      C1952   1.615       .  S
C1191      C4340   1.621       .  S
C1191      C2008   1.616       .  S
C1192      C1193   1.419   1_556  A
C1192      C1197   1.410   1_565  A
C1192      C1889   1.506       .  S
C1193      C1194   1.405       .  A
C1193      C1840   1.494       .  S
C1194      H1199   1.085       .  S
C1195      C1196   1.415   1_554  A
C1195      C1805   1.493       .  S
C1196      C1861   1.495       .  S
C1197      H1198   1.085       .  S
O1200     Zr1212   2.446       .  S
O1200      C1202   1.287       .  A
O1201     Zr1238   2.417       .  S
O1201      C1202   1.285       .  A
C1202      C2232   1.514       .  S
O1203     Zr1215   2.449       .  S
O1203      C1205   1.289       .  A
O1204     Zr1239   2.444       .  S
O1204      C1205   1.291       .  A
C1205      C2120   1.493       .  S
O1206     Zr1215   2.468       .  S
O1206      C1208   1.294       .  A
O1207     Zr1238   2.415       .  S
O1207      C1208   1.285       .  A
C1208      C1896   1.495       .  S
O1209     Zr1212   2.429       .  S
O1209      C1211   1.285       .  A
O1210     Zr1239   2.456       .  S
O1210      C1211   1.293       .  A
C1211      C2001   1.491       .  S
Zr1212     O1213   2.433       .  S
Zr1212     O1214   2.437       .  S
Zr1212     O1218   2.369       .  S
Zr1212     O1219   2.368       .  S
Zr1212     O1242   2.378       .  S
Zr1212     O1244   2.362       .  S
O1213      H1256   0.990       .  S
O1214      H1255   0.990       .  S
O1214      H1259   0.990       .  S
Zr1215     O1216   2.433       .  S
Zr1215     O1217   2.434       .  S
Zr1215     O1219   2.384       .  S
Zr1215     O1218   2.367       .  S
Zr1215     O1243   2.370       .  S
Zr1215     O1245   2.374       .  S
O1216      H1257   0.989       .  S
O1216      H1260   0.990       .  S
O1217      H1250   0.990       .  S
O1218     Zr1238   2.376       .  S
O1219     Zr1239   2.396       .  S
O1219      H1246   0.964       .  S
O1220     Zr1232   2.449       .  S
O1220      C1222   1.291       .  A
O1221     Zr1239   2.451       .  S
O1221      C1222   1.292       .  A
C1222      C2085   1.509       .  S
O1223     Zr1235   2.460       .  S
O1223      C1225   1.291       .  A
O1224     Zr1238   2.420       .  S
O1224      C1225   1.286       .  A
C1225      C2204   1.517       .  S
O1226     Zr1235   2.449       .  S
O1226      C1228   1.289       .  A
O1227     Zr1239   2.448       .  S
O1227      C1228   1.291       .  A
C1228      C1973   1.495       .  S
O1229     Zr1232   2.456       .  S
O1229      C1231   1.291       .  A
O1230     Zr1238   2.424       .  S
O1230      C1231   1.287       .  A
C1231      C1868   1.491       .  S
Zr1232     O1233   2.426       .  S
Zr1232     O1234   2.434       .  S
Zr1232     O1240   2.375       .  S
Zr1232     O1241   2.361       .  S
Zr1232     O1244   2.377       .  S
Zr1232     O1242   2.379       .  S
O1233      H1253   0.989       .  S
O1233      H1258   0.989       .  S
O1234      H1254   0.990       .  S
Zr1235     O1236   2.434       .  S
Zr1235     O1237   2.435       .  S
Zr1235     O1241   2.369       .  S
Zr1235     O1240   2.367       .  S
Zr1235     O1245   2.379       .  S
Zr1235     O1243   2.367       .  S
O1236      H1252   0.990       .  S
O1237      H1251   0.990       .  S
O1237      H1261   0.990       .  S
Zr1238     O1241   2.370       .  S
Zr1238     O1243   2.383       .  S
Zr1238     O1244   2.382       .  S
Zr1239     O1240   2.389       .  S
Zr1239     O1242   2.387       .  S
Zr1239     O1245   2.393       .  S
O1240      H1248   0.975       .  S
O1243      H1247   0.972       .  S
O1244      H1249   0.962       .  S
O1262     Zr1274   2.460       .  S
O1262      C1264   1.292       .  A
O1263     Zr1300   2.433       .  S
O1263      C1264   1.288       .  A
C1264      C1777   1.499       .  S
O1265     Zr1277   2.470       .  S
O1265      C1267   1.293       .  A
O1266     Zr1301   2.410       .  S
O1266      C1267   1.284       .  A
C1267      C1833   1.512       .  S
O1268     Zr1277   2.440       .  S
O1268      C1270   1.287       .  A
O1269     Zr1300   2.441       .  S
O1269      C1270   1.289       .  A
C1270      C2337   1.484       .  S
O1271     Zr1274   2.471       .  S
O1271      C1273   1.294       .  A
O1272     Zr1301   2.418       .  S
O1272      C1273   1.285       .  A
C1273      C2176   1.498       .  S
Zr1274     O1275   2.435       .  S
Zr1274     O1276   2.431       .  S
Zr1274     O1280   2.372       .  S
Zr1274     O1281   2.376       .  S
Zr1274     O1304   2.369       .  S
Zr1274     O1306   2.386       .  S
O1275      H1318   0.990       .  S
O1276      H1317   0.989       .  S
O1276      H1321   0.990       .  S
Zr1277     O1278   2.437       .  S
Zr1277     O1279   2.435       .  S
Zr1277     O1281   2.364       .  S
Zr1277     O1280   2.378       .  S
Zr1277     O1305   2.381       .  S
Zr1277     O1307   2.367       .  S
O1278      H1319   0.990       .  S
O1278      H1322   0.990       .  S
O1279      H1312   0.990       .  S
O1280     Zr1300   2.388       .  S
O1281     Zr1301   2.376       .  S
O1281      H1308   0.967       .  S
O1282     Zr1294   2.459       .  S
O1282      C1284   1.291       .  A
O1283     Zr1301   2.398       .  S
O1283      C1284   1.281       .  A
C1284      C1812   1.507       .  S
O1285     Zr1297   2.437       .  S
O1285      C1287   1.287       .  A
O1286     Zr1300   2.453       .  S
O1286      C1287   1.292       .  A
C1287      C1749   1.492       .  S
O1288     Zr1297   2.457       .  S
O1288      C1290   1.291       .  A
O1289     Zr1301   2.412       .  S
O1289      C1290   1.284       .  A
C1290      C2148   1.487       .  S
O1291     Zr1294   2.452       .  S
O1291      C1293   1.290       .  A
O1292     Zr1300   2.444       .  S
O1292      C1293   1.290       .  A
C1293      C2316   1.499       .  S
Zr1294     O1295   2.436       .  S
Zr1294     O1296   2.433       .  S
Zr1294     O1302   2.367       .  S
Zr1294     O1303   2.377       .  S
Zr1294     O1306   2.371       .  S
Zr1294     O1304   2.372       .  S
O1295      H1315   0.990       .  S
O1295      H1320   0.990       .  S
O1296      H1316   0.990       .  S
Zr1297     O1298   2.433       .  S
Zr1297     O1299   2.432       .  S
Zr1297     O1303   2.377       .  S
Zr1297     O1302   2.372       .  S
Zr1297     O1307   2.367       .  S
Zr1297     O1305   2.379       .  S
O1298      H1314   0.990       .  S
O1299      H1313   0.990       .  S
O1299      H1323   0.990       .  S
Zr1300     O1303   2.382       .  S
Zr1300     O1305   2.392       .  S
Zr1300     O1306   2.396       .  S
Zr1301     O1302   2.377       .  S
Zr1301     O1304   2.377       .  S
Zr1301     O1307   2.372       .  S
O1302      H1310   0.964       .  S
O1305      H1309   0.970       .  S
O1306      H1311   0.963       .  S
O1324     Zr1336   2.451       .  S
O1324      C1326   1.290       .  A
O1325      C1326   1.288       .  A
C1326      C1945   1.489       .  S
O1327     Zr1339   2.470       .  S
O1327      C1329   1.293       .  A
O1328     Zr3723   2.424   1_455  S
O1328      C1329   1.286       .  A
O1330     Zr1339   2.434       .  S
O1330      C1332   1.287       .  A
O1331     Zr3722   2.442   1_455  S
O1331      C1332   1.290       .  A
C1332      C2064   1.492       .  S
O1333     Zr1336   2.460       .  S
O1333      C1335   1.291       .  A
O1334      C1335   1.288       .  A
C1335      C1728   1.494       .  S
Zr1336     O3697   2.433       .  S
Zr1336     O1338   2.434       .  S
Zr1336     O3702   2.380       .  S
Zr1336     O3703   2.373       .  S
Zr1336     O1366   2.375       .  S
Zr1336     O1368   2.368       .  S
O1337     Zr3696   2.432   1_455  S
O1337      H1380   0.990       .  S
O1338      H1379   0.990       .  S
O1338      H1383   0.990       .  S
Zr1339     O1341   2.433       .  S
Zr1339     O1367   2.384       .  S
Zr1339     O1369   2.368       .  S
O1340      H1381   0.990       .  S
O1340      H1384   0.990       .  S
O1341      H1374   0.990       .  S
O1342     Zr3696   2.383   1_455  S
O1342     Zr2542   2.396   1_465  S
O1343     Zr3696   2.373   1_455  S
O1343     Zr2543   2.379   1_455  S
O1343      H1370   0.964       .  S
O1344     Zr1356   2.456       .  S
O1344      C1346   1.290       .  A
O1345     Zr1363   2.421       .  S
O1345      C1346   1.286       .  A
C1346      C1665   1.491       .  S
O1347     Zr1359   2.454       .  S
O1347      C1349   1.291       .  A
O1348     Zr1362   2.427       .  S
O1348      C1349   1.287       .  A
C1349      C1917   1.495       .  S
O1350     Zr1359   2.457       .  S
O1350      C1352   1.291       .  A
O1351     Zr1363   2.409       .  S
O1351      C1352   1.284       .  A
C1352      C1700   1.501       .  S
O1353     Zr1356   2.436       .  S
O1353      C1355   1.288       .  A
O1354     Zr1362   2.460       .  S
O1354      C1355   1.294       .  A
C1355      C2036   1.502       .  S
Zr1356     O1357   2.434       .  S
Zr1356     O1364   2.370       .  S
Zr1356     O1365   2.377       .  S
O1357      H1377   0.990       .  S
O1357      H1382   0.990       .  S
O1358      H1378   0.990       .  S
Zr1359     O1360   2.434       .  S
Zr1359     O3721   2.433       .  S
Zr1359     O1365   2.374       .  S
Zr1359     O1364   2.368       .  S
Zr1359     O3729   2.374       .  S
Zr1359     O3727   2.371       .  S
O1360      H1376   0.990       .  S
O1361     Zr3719   2.432       .  S
O1361      H1375   0.990       .  S
O1361      H1385   0.990       .  S
Zr1362     O3691   2.448       .  S
Zr1362     O2522   2.386       .  S
Zr1362     O1365   2.389       .  S
Zr1362     O3727   2.398       .  S
Zr1363     O3688   2.432       .  S
Zr1363     O2523   2.379       .  S
Zr1363     O1364   2.384       .  S
Zr1363     O3729   2.377       .  S
O1364      H1372   0.962       .  S
O1367     Zr3719   2.371       .  S
O1367     Zr3722   2.392   1_455  S
O1367      H1371   0.966       .  S
O1368      H1373   0.967       .  S
O1369     Zr3719   2.375       .  S
O1369     Zr3723   2.376   1_455  S
O1386     Zr1398   2.434       .  S
O1386      C1388   1.286       .  A
O1387     Zr3784   2.441   1_455  S
O1387      C1388   1.289       .  A
C1388      C2281   1.485       .  S
O1389     Zr1401   2.444       .  S
O1389      C1391   1.288       .  A
O1390      C1391   1.283       .  A
C1391      C1553   1.487       .  S
O1392     Zr1401   2.437       .  S
O1392      C1394   1.288       .  A
O1393      C1394   1.288       .  A
C1394      C1469   1.493       .  S
O1395     Zr1398   2.455       .  S
O1395      C1397   1.290       .  A
O1396     Zr3785   2.417   1_455  S
O1396      C1397   1.285       .  A
Zr1398     O1400   2.435       .  S
Zr1398     O1428   2.369       .  S
Zr1398     O1430   2.375       .  S
O1399      H1442   0.989       .  S
O1400      H1441   0.989       .  S
O1400      H1445   0.990       .  S
Zr1401     O3762   2.435       .  S
Zr1401     O1403   2.433       .  S
Zr1401     O3765   2.371       .  S
Zr1401     O3764   2.373       .  S
Zr1401     O1429   2.375       .  S
Zr1401     O1431   2.369       .  S
O1402     Zr3761   2.434       .  S
O1402      H1443   0.990       .  S
O1402      H1446   0.990       .  S
O1403      H1436   0.990       .  S
O1404     Zr3761   2.371       .  S
O1404     Zr2604   2.386   1_455  S
O1405     Zr3761   2.376       .  S
O1405     Zr2605   2.376   1_465  S
O1405      H1432   0.960       .  S
O1406     Zr1418   2.472       .  S
O1406      C1408   1.294       .  A
O1407     Zr1425   2.405       .  S
O1407      C1408   1.284       .  A
C1408      C1525   1.499       .  S
O1409     Zr1421   2.432       .  S
O1409      C1411   1.286       .  A
O1410     Zr1424   2.448       .  S
O1410      C1411   1.291       .  A
C1411      C2253   1.484       .  S
O1412     Zr1421   2.472       .  S
O1412      C1414   1.294       .  A
O1413     Zr1425   2.425       .  S
O1413      C1414   1.287       .  A
C1414      C1616   1.507       .  S
O1415     Zr1418   2.465       .  S
O1415      C1417   1.294       .  A
O1416     Zr1424   2.427       .  S
O1416      C1417   1.287       .  A
C1417      C1497   1.499       .  S
Zr1418     O1419   2.434       .  S
Zr1418     O3780   2.429       .  S
Zr1418     O1426   2.378       .  S
Zr1418     O1427   2.376       .  S
Zr1418     O3790   2.376       .  S
Zr1418     O3788   2.373       .  S
O1419      H1439   0.990       .  S
O1419      H1444   0.990       .  S
O1420     Zr3778   2.424   1_455  S
O1420      H1440   0.990       .  S
Zr1421     O1422   2.432       .  S
Zr1421     O1427   2.387       .  S
Zr1421     O1426   2.366       .  S
O1422      H1438   0.990       .  S
O1423      H1437   0.990       .  S
O1423      H1447   0.990       .  S
Zr1424     O3747   2.448       .  S
Zr1424     O2584   2.384       .  S
Zr1424     O1427   2.393       .  S
Zr1424     O3790   2.397       .  S
Zr1425     O3756   2.421       .  S
Zr1425     O2585   2.375       .  S
Zr1425     O1426   2.380       .  S
Zr1425     O3788   2.376       .  S
O1426      H1434   0.964       .  S
O1428     Zr3778   2.374   1_455  S
O1428     Zr3785   2.373   1_455  S
O1429      H1433   0.968       .  S
O1430     Zr3778   2.376   1_455  S
O1430     Zr3784   2.392   1_455  S
O1430      H1435   0.967       .  S
C1448      C1449   1.416   1_655  A
C1448      C1453   1.399   1_655  A
C1448      C1721   1.492       .  S
C1449      C1450   1.400       .  A
C1449      C1560   1.488       .  S
C1450      C1451   1.400       .  A
C1450      H1455   1.086       .  S
C1451      C1452   1.413       .  A
C1451      C1532   1.489       .  S
C1452      C1453   1.401       .  A
C1452      C1693   1.488       .  S
C1453      H1454   1.086   1_455  S
C1456      C1457   1.414       .  A
C1456      C1461   1.404       .  A
C1456      C1672   1.492       .  S
C1457      C1458   1.401       .  A
C1457      C1609   1.494       .  S
C1458      C1459   1.404       .  A
C1458      H1463   1.085       .  S
C1459      C1460   1.419       .  A
C1459      C1581   1.493       .  S
C1460      C1461   1.406       .  A
C1460      C1637   1.501       .  S
C1461      H1462   1.085       .  S
C1464      C1476   1.615       .  S
C1464      C1504   1.611       .  S
C1464      C4116   1.612       .  S
C1464      C1784   1.615       .  S
C1465      C1466   1.411       .  A
C1465      C1470   1.412       .  A
C1465      C3843   1.451       .  S
C1466      C1467   1.411       .  A
C1466      C1471   1.502       .  S
C1467      C1468   1.410       .  A
C1467      C1472   1.451       .  S
C1468      C1469   1.417       .  A
C1468      C1484   1.452       .  S
C1469      C1470   1.417       .  A
C1470      C3833   1.450       .  S
C1471      C3834   1.397       .  A
C1471      C1478   1.402       .  A
C1472      N1489   1.157       .  T
C1473      C3830   1.449       .  S
C1473      N1491   1.157       .  T
C1474      C3831   1.397   1_455  A
C1474      C1475   1.412       .  A
C1474      C1479   1.457       .  S
C1475      C3836   1.453   1_455  A
C1475      C1481   1.450       .  S
C1476      C3835   1.452       .  A
C1476      C1477   1.447       .  A
C1477      C1478   1.421       .  A
C1477      C1480   1.450       .  S
C1478      C1482   1.454       .  S
C1479      N1486   1.157       .  T
C1480      N1487   1.157       .  T
C1481      N1485   1.157       .  T
C1482      N1488   1.157       .  T
C1483      C3825   1.452       .  S
C1483      N1492   1.157       .  T
C1484      N1490   1.157       .  T
C1493      C1494   1.411       .  A
C1493      C1498   1.409       .  A
C1493      C1511   1.452       .  S
C1494      C1495   1.415       .  A
C1494      C1499   1.507       .  S
C1495      C1496   1.416       .  A
C1495      C1500   1.451       .  S
C1496      C1497   1.419       .  A
C1496      C1512   1.449       .  S
C1497      C1498   1.416       .  A
C1498      C1501   1.449       .  S
C1499      C3862   1.400       .  A
C1499      C1506   1.403       .  A
C1500      N3877   1.158       .  T
C1501      N1519   1.157       .  T
C1502      C3859   1.404   1_455  A
C1502      C1503   1.420       .  A
C1502      C1507   1.453       .  S
C1503      C3864   1.452   1_455  A
C1503      C1509   1.450   1_455  S
C1504      C3863   1.452       .  A
C1504      C1505   1.445       .  A
C1505      C1506   1.413       .  A
C1505      C1508   1.443       .  S
C1506      C1510   1.455       .  S
C1507      N1514   1.157       .  T
C1508      N1515   1.157       .  T
C1509      N1513   1.157       .  T
C1510      N1516   1.157       .  T
C1511      N1520   1.157       .  T
C1512      N1518   1.158       .  T
N1517      C3860   1.157       .  T
C1521      C3882   1.410       .  A
C1521      C1526   1.410       .  A
C1521      C1539   1.452       .  S
C1522      C3881   1.411       .  A
C1522      C1523   1.405       .  A
C1522      C1527   1.496       .  S
C1523      C1524   1.407       .  A
C1523      C1528   1.453       .  S
C1524      C1525   1.423       .  A
C1524      C1540   1.448       .  S
C1525      C3886   1.418       .  A
C1526      C3885   1.416   1_455  A
C1526      C1529   1.450       .  S
C1527      C1530   1.410       .  A
C1527      C3894   1.410       .  A
C1528      N1545   1.157       .  T
C1529      N1547   1.157       .  T
C1530      C1531   1.407       .  A
C1530      C1535   1.452       .  S
C1531      C3892   1.418       .  A
C1531      C1537   1.453       .  S
C1532      C3891   1.418   1_455  A
C1532      C1533   1.414       .  A
C1533      C1534   1.411       .  A
C1533      C1536   1.448       .  S
C1534      C3887   1.410       .  A
C1534      C1538   1.451       .  S
C1535      N1542   1.157       .  T
C1536      N1543   1.157       .  T
C1537      N1541   1.157       .  T
C1538      N1544   1.157       .  T
C1539      N1548   1.157       .  T
C1540      N1546   1.156       .  T
C1549      C1550   1.407       .  A
C1549      C1554   1.407       .  A
C1549      C1567   1.453       .  S
C1550      C3911   1.410   1_455  A
C1550      C1555   1.493       .  S
C1551      C3910   1.410       .  A
C1551      C1552   1.409       .  A
C1551      C1556   1.452       .  S
C1552      C1553   1.417       .  A
C1552      C1568   1.451       .  S
C1553      C3914   1.419       .  A
C1554      C3913   1.420       .  A
C1554      C1557   1.449       .  S
C1555      C3918   1.412   1_455  A
C1555      C1562   1.409       .  A
C1556      N1573   1.157       .  T
C1557      N1575   1.156       .  T
C1558      C3915   1.410       .  A
C1558      C1559   1.410       .  A
C1558      C1563   1.451       .  S
C1559      C3920   1.412       .  A
C1559      C1565   1.448       .  S
C1560      C3919   1.414   1_455  A
C1560      C1561   1.418       .  A
C1561      C1562   1.405       .  A
C1561      C1564   1.453       .  S
C1562      C1566   1.453       .  S
C1563      N1570   1.157       .  T
C1564      N1571   1.157       .  T
C1565      N1569   1.157       .  T
C1566      N1572   1.157       .  T
C1567      N1576   1.157       .  T
C1568      N1574   1.157       .  T
C1577      C1578   1.412   1_565  A
C1577      C1582   1.413       .  A
C1577      C1595   1.450       .  S
C1578      C1583   1.501       .  S
C1579      C1580   1.408       .  A
C1579      C1584   1.452       .  S
C1580      C1596   1.452       .  S
C1581      C1582   1.413   1_545  A
C1582      C1585   1.448       .  S
C1583      C1590   1.409   1_545  A
C1584      N1601   1.157       .  T
C1585      N1603   1.157       .  T
C1586      C1587   1.411       .  A
C1586      C1591   1.452       .  S
C1587      C1593   1.450       .  S
C1588      C1589   1.423   1_545  A
C1589      C1590   1.414       .  A
C1589      C1592   1.450       .  S
C1590      C1594   1.452       .  S
C1591      N1598   1.157       .  T
C1592      N1599   1.157       .  T
C1593      N1597   1.157       .  T
C1594      N1600   1.157       .  T
C1595      N1604   1.157       .  T
C1596      N1602   1.157       .  T
C1605      C1606   1.409   1_565  A
C1605      C1610   1.409       .  A
C1605      C1623   1.450       .  S
C1607      C1608   1.419       .  A
C1607      C1612   1.450       .  S
C1608      C1624   1.448       .  S
C1609      C1610   1.417   1_545  A
C1610      C1613   1.452       .  S
C1611      C1618   1.407       .  A
C1612      N1629   1.157       .  T
C1613      N1631   1.157       .  T
C1614      C1619   1.452       .  S
C1615      C1616   1.419       .  A
C1615      C1621   1.449       .  S
C1616      C1617   1.421       .  A
C1617      C1618   1.413       .  A
C1617      C1620   1.446       .  S
C1618      C1622   1.452       .  S
C1619      N1626   1.157       .  T
C1620      N1627   1.155       .  T
C1622      N1628   1.157       .  T
C1623      N1632   1.157       .  T
C1624      N1630   1.157       .  T
C1633      C1638   1.418       .  A
C1633      C1651   1.450       .  S
C1634      C1635   1.410       .  A
C1634      C1639   1.506       .  S
C1635      C1636   1.412       .  A
C1635      C1640   1.451       .  S
C1636      C1637   1.420   1_565  A
C1636      C1652   1.453       .  S
C1638      C1641   1.448       .  S
C1639      C1642   1.410       .  A
C1640      N1657   1.157       .  T
C1641      N1659   1.157       .  T
C1642      C1643   1.416       .  A
C1642      C1647   1.451       .  S
C1643      C1644   1.420       .  A
C1643      C1649   1.449       .  S
C1645      C1646   1.415       .  A
C1645      C1648   1.450       .  S
C1646      C1650   1.451       .  S
C1647      N1654   1.157       .  T
C1648      N1655   1.157       .  T
C1649      N1653   1.157       .  T
C1650      N1656   1.157       .  T
C1651      N1660   1.157       .  T
C1652      N1658   1.158       .  T
C1661      C1666   1.412       .  A
C1661      C1679   1.452       .  S
C1662      C1663   1.411       .  A
C1663      C1664   1.411       .  A
C1663      C1668   1.451       .  S
C1664      C1665   1.416       .  A
C1664      C1680   1.449       .  S
C1666      C1669   1.450       .  S
C1667      C1670   1.410       .  A
C1667      C1674   1.411   1_545  A
C1668      N1685   1.157       .  T
C1669      N1687   1.157       .  T
C1670      C1671   1.409       .  A
C1671      C1672   1.416       .  A
C1671      C1677   1.452       .  S
C1672      C1673   1.414   1_545  A
C1673      C1674   1.412       .  A
C1673      C1676   1.448       .  S
C1674      C1678   1.451       .  S
C1675      N1682   1.157       .  T
C1676      N1683   1.157       .  T
C1677      N1681   1.157       .  T
C1678      N1684   1.157       .  T
C1679      N1688   1.157       .  T
C1680      N1686   1.156       .  T
C1689      C4050   1.406       .  A
C1689      C1694   1.406       .  A
C1689      C1707   1.451       .  S
C1690      C4049   1.406       .  A
C1690      C1691   1.409       .  A
C1690      C1695   1.488       .  S
C1691      C1692   1.409       .  A
C1691      C1696   1.451       .  S
C1692      C4053   1.413       .  A
C1692      C1708   1.448       .  S
C1693      C4052   1.413   1_455  A
C1693      C1694   1.418       .  A
C1694      C1697   1.453       .  S
C1695      C4058   1.406       .  A
C1695      C1702   1.403       .  A
C1696      N1713   1.157       .  T
C1697      N1715   1.157       .  T
C1698      C4055   1.408   1_655  A
C1698      C1699   1.412       .  A
C1698      C1703   1.452       .  S
C1699      C4060   1.422   1_655  A
C1699      C1705   1.450       .  S
C1700      C4059   1.423       .  A
C1700      C1701   1.427       .  A
C1701      C1702   1.410       .  A
C1701      C1704   1.450       .  S
C1702      C1706   1.452       .  S
C1703      N1710   1.157       .  T
C1704      N1711   1.157       .  T
C1705      N1709   1.157       .  T
C1706      N1712   1.157       .  T
C1707      N1716   1.157       .  T
C1708      N1714   1.157       .  T
C1717      C4078   1.412   1_455  A
C1717      C1722   1.412       .  A
C1717      C1735   1.451       .  S
C1718      C4077   1.413       .  A
C1718      C1719   1.412       .  A
C1718      C1723   1.504       .  S
C1719      C1720   1.410       .  A
C1719      C1724   1.452       .  S
C1720      C4081   1.417       .  A
C1720      C1736   1.453       .  S
C1721      C4080   1.418       .  A
C1721      C1722   1.413   1_655  A
C1722      C1725   1.448       .  S
C1723      C4086   1.410       .  A
C1723      C1730   1.415       .  A
C1724      N1741   1.157       .  T
C1725      N1743   1.157       .  T
C1726      C4083   1.408       .  A
C1726      C1727   1.411       .  A
C1726      C1731   1.452       .  S
C1727      C4088   1.421       .  A
C1727      C1733   1.449       .  S
C1728      C4087   1.415       .  A
C1728      C1729   1.416       .  A
C1729      C1730   1.415       .  A
C1729      C1732   1.451       .  S
C1730      C1734   1.451       .  S
C1731      N1738   1.157       .  T
C1732      N1739   1.157       .  T
C1733      N1737   1.156       .  T
C1734      N1740   1.157       .  T
C1735      N1744   1.157       .  T
C1736      N1742   1.157       .  T
C1745      C1746   1.415       .  A
C1745      C1750   1.416       .  A
C1745      C1763   1.451       .  S
C1746      C1747   1.415       .  A
C1746      C1751   1.511       .  S
C1747      C1748   1.412       .  A
C1747      C1752   1.451       .  S
C1748      C1749   1.414       .  A
C1748      C1764   1.451       .  S
C1749      C1750   1.413       .  A
C1750      C1753   1.447       .  S
C1751      C1754   1.402       .  A
C1751      C1758   1.402       .  A
C1752      N1769   1.157       .  T
C1753      N1771   1.156       .  T
C1754      C1755   1.419       .  A
C1754      C1759   1.454       .  S
C1755      C1756   1.450       .  A
C1755      C1761   1.452       .  S
C1756      C3824   1.610   1_455  S
C1756      C1757   1.449       .  A
C1757      C1758   1.420       .  A
C1757      C1760   1.444   1_455  S
C1758      C1762   1.457       .  S
C1759      N1766   1.157       .  T
C1760      N4127   1.157       .  T
C1761      N1765   1.157       .  T
C1762      N1768   1.157       .  T
C1763      N1772   1.157       .  T
C1764      N1770   1.157       .  T
N1767      C4120   1.157       .  T
C1773      C1774   1.413       .  A
C1773      C1778   1.416       .  A
C1773      C1791   1.451       .  S
C1774      C1775   1.412       .  A
C1774      C1779   1.508       .  S
C1775      C1776   1.411       .  A
C1775      C1780   1.451       .  S
C1776      C1777   1.416       .  A
C1776      C1792   1.450       .  S
C1777      C1778   1.418       .  A
C1778      C1781   1.450       .  S
C1779      C1782   1.399       .  A
C1779      C1786   1.401       .  A
C1780      N1797   1.157       .  T
C1781      N1799   1.157       .  T
C1782      C1783   1.420       .  A
C1782      C1787   1.457       .  S
C1783      C1784   1.455       .  A
C1783      C1789   1.450       .  S
C1784      C1785   1.449       .  A
C1785      C1786   1.420       .  A
C1785      C1788   1.448       .  S
C1786      C1790   1.455       .  S
C1787      N1794   1.157       .  T
C1788      N1795   1.157       .  T
C1789      N1793   1.158       .  T
C1790      N1796   1.157       .  T
C1791      N1800   1.157       .  T
C1792      N1798   1.157       .  T
C1801      C1802   1.410       .  A
C1801      C1806   1.414       .  A
C1801      C1819   1.451       .  S
C1802      C1803   1.409       .  A
C1802      C1807   1.495       .  S
C1803      C1804   1.406       .  A
C1803      C1808   1.452       .  S
C1804      C1805   1.417       .  A
C1804      C1820   1.452       .  S
C1805      C1806   1.416       .  A
C1806      C1809   1.448       .  S
C1807      C1810   1.404       .  A
C1807      C1814   1.408       .  A
C1808      N1825   1.157       .  T
C1809      N1827   1.157       .  T
C1810      C1811   1.411       .  A
C1810      C1815   1.452       .  S
C1811      C1812   1.430       .  A
C1811      C1817   1.453       .  S
C1812      C1813   1.424       .  A
C1813      C1814   1.410       .  A
C1813      C1816   1.451       .  S
C1814      C1818   1.452       .  S
C1815      N1822   1.157       .  T
C1816      N1823   1.157       .  T
C1817      N1821   1.158       .  T
C1818      N1824   1.157       .  T
C1819      N1828   1.157       .  T
C1820      N1826   1.157       .  T
C1829      C1830   1.405       .  A
C1829      C1834   1.414       .  A
C1829      C1847   1.452       .  S
C1830      C1831   1.409       .  A
C1830      C1835   1.500       .  S
C1831      C1832   1.412       .  A
C1831      C1836   1.453       .  S
C1832      C1833   1.423       .  A
C1832      C1848   1.450       .  S
C1833      C1834   1.429       .  A
C1834      C1837   1.451       .  S
C1835      C1838   1.410       .  A
C1835      C1842   1.411       .  A
C1836      N1853   1.157       .  T
C1837      N1855   1.157       .  T
C1838      C1839   1.414       .  A
C1838      C1843   1.450       .  S
C1839      C1840   1.416       .  A
C1839      C1845   1.449       .  S
C1840      C1841   1.415       .  A
C1841      C1842   1.409       .  A
C1841      C1844   1.451       .  S
C1842      C1846   1.452       .  S
C1843      N1850   1.157       .  T
C1844      N1851   1.157       .  T
C1845      N1849   1.157       .  T
C1846      N1852   1.157       .  T
C1847      N1856   1.157       .  T
C1848      N1854   1.157       .  T
C1857      C1858   1.410       .  A
C1857      C1862   1.411       .  A
C1857      C1875   1.451       .  S
C1858      C1859   1.410       .  A
C1858      C1863   1.499       .  S
C1859      C1860   1.411       .  A
C1859      C1864   1.452       .  S
C1860      C1861   1.416       .  A
C1860      C1876   1.447       .  S
C1861      C1862   1.417       .  A
C1862      C1865   1.451       .  S
C1863      C1866   1.413       .  A
C1863      C1870   1.408       .  A
C1864      N1881   1.157       .  T
C1865      N1883   1.157       .  T
C1866      C1867   1.412       .  A
C1866      C1871   1.451       .  S
C1867      C1868   1.415       .  A
C1867      C1873   1.449       .  S
C1868      C1869   1.416       .  A
C1869      C1870   1.410       .  A
C1869      C1872   1.447       .  S
C1870      C1874   1.451       .  S
C1871      N1878   1.157       .  T
C1872      N1879   1.155       .  T
C1873      N1877   1.157       .  T
C1874      N1880   1.157       .  T
C1875      N1884   1.157       .  T
C1885      C1886   1.409       .  A
C1885      C1890   1.414       .  A
C1885      C1903   1.450       .  S
C1886      C1887   1.409       .  A
C1886      C1891   1.503       .  S
C1887      C1888   1.414       .  A
C1887      C1892   1.453       .  S
C1888      C1889   1.418       .  A
C1888      C1904   1.446       .  S
C1889      C1890   1.420       .  A
C1890      C1893   1.451       .  S
C1891      C1894   1.412       .  A
C1891      C1898   1.409       .  A
C1892      N1909   1.157       .  T
C1893      N1911   1.157       .  T
C1894      C1895   1.411       .  A
C1894      C1899   1.451       .  S
C1895      C1896   1.414       .  A
C1895      C1901   1.450       .  S
C1896      C1897   1.419       .  A
C1897      C1898   1.415       .  A
C1897      C1900   1.449       .  S
C1898      C1902   1.450       .  S
C1899      N1906   1.157       .  T
C1900      N1907   1.156       .  T
C1901      N1905   1.157       .  T
C1902      N1908   1.157       .  T
C1903      N1912   1.157       .  T
C1904      N1910   1.157       .  T
C1913      C1914   1.412       .  A
C1913      C1918   1.411       .  A
C1913      C1931   1.451       .  S
C1914      C1915   1.412       .  A
C1914      C1919   1.506       .  S
C1915      C1916   1.413       .  A
C1915      C1920   1.452       .  S
C1916      C1917   1.418       .  A
C1916      C1932   1.450       .  S
C1917      C1918   1.416       .  A
C1918      C1921   1.451       .  S
C1919      C1922   1.400       .  A
C1919      C4286   1.399       .  A
C1920      N1937   1.157       .  T
C1921      N1939   1.157       .  T
C1922      C1923   1.418       .  A
C1922      C1927   1.457       .  S
C1923      C1924   1.450       .  A
C1923      C1929   1.448       .  S
C1924      C4285   1.451       .  A
C1925      C4284   1.450   1_455  A
C1925      C1926   1.421       .  A
C1925      C1928   1.446       .  S
C1926      C4279   1.402   1_455  A
C1926      C1930   1.456       .  S
C1927      N1934   1.157       .  T
C1928      N1935   1.157       .  T
C1929      N1933   1.157       .  T
C1930      N1936   1.157       .  T
C1931      N4300   1.157       .  T
C1932      N1938   1.157       .  T
N1940      C4291   1.157       .  T
C1941      C4302   1.413   1_455  A
C1941      C1946   1.411       .  A
C1941      C1959   1.451       .  S
C1942      C4301   1.414       .  A
C1942      C1943   1.414       .  A
C1942      C1947   1.509       .  S
C1943      C1944   1.413       .  A
C1943      C1948   1.450       .  S
C1944      C1945   1.413       .  A
C1944      C1960   1.451       .  S
C1945      C4306   1.413       .  A
C1946      C4305   1.411   1_455  A
C1946      C1949   1.449       .  S
C1947      C4310   1.400       .  A
C1947      C1954   1.400       .  A
C1948      N1965   1.157       .  T
C1949      N1967   1.156       .  T
C1950      C4307   1.401       .  A
C1950      C1951   1.421       .  A
C1950      C1955   1.454       .  S
C1951      C4312   1.449       .  A
C1951      C1957   1.450       .  S
C1952      C4311   1.449       .  A
C1952      C1953   1.453       .  A
C1953      C1954   1.419       .  A
C1953      C1956   1.448       .  S
C1954      C1958   1.458       .  S
C1955      N1962   1.157       .  T
C1956      N1963   1.157       .  T
C1957      N1961   1.157       .  T
C1958      N1964   1.157       .  T
C1959      N1968   1.157       .  T
C1960      N1966   1.157       .  T
C1969      C1970   1.414       .  A
C1969      C1974   1.414       .  A
C1969      C1987   1.450       .  S
C1970      C1971   1.416       .  A
C1970      C1975   1.514       .  S
C1971      C1972   1.417       .  A
C1971      C1976   1.448       .  S
C1972      C1973   1.413       .  A
C1972      C1988   1.449       .  S
C1973      C1974   1.414       .  A
C1974      C1977   1.451       .  S
C1975      C1978   1.401       .  A
C1975      C1982   1.403       .  A
C1976      N1993   1.157       .  T
C1977      N1995   1.157       .  T
C1978      C1979   1.423       .  A
C1978      C1983   1.454       .  S
C1979      C1980   1.452       .  A
C1979      C1985   1.448       .  S
C1980      C3551   1.621   1_455  S
C1980      C1981   1.449       .  A
C1981      C1982   1.419       .  A
C1981      C1984   1.448   1_455  S
C1982      C1986   1.454       .  S
C1983      N1990   1.157       .  T
C1984      N4351   1.158       .  T
C1985      N1989   1.157       .  T
C1986      N1992   1.157       .  T
C1987      N1996   1.157       .  T
C1988      N1994   1.157       .  T
N1991      C4344   1.158       .  T
C1997      C1998   1.414       .  A
C1997      C2002   1.411       .  A
C1997      C2015   1.452       .  S
C1998      C1999   1.414       .  A
C1998      C2003   1.508       .  S
C1999      C2000   1.413       .  A
C1999      C2004   1.450       .  S
C2000      C2001   1.412       .  A
C2000      C2016   1.448       .  S
C2001      C2002   1.415       .  A
C2002      C2005   1.450       .  S
C2003      C2006   1.400       .  A
C2003      C2010   1.399       .  A
C2004      N2021   1.157       .  T
C2005      N2023   1.157       .  T
C2006      C2007   1.419       .  A
C2006      C2011   1.456       .  S
C2007      C2008   1.450       .  A
C2007      C2013   1.448       .  S
C2008      C2009   1.454       .  A
C2009      C2010   1.420       .  A
C2009      C2012   1.449       .  S
C2010      C2014   1.457       .  S
C2011      N2018   1.157       .  T
C2012      N2019   1.158       .  T
C2013      N2017   1.157       .  T
C2014      N2020   1.157       .  T
C2015      N2024   1.157       .  T
C2016      N2022   1.157       .  T
C2025      C2026   1.398       .  A
C2025      C2030   1.411       .  A
C2025      C2043   1.455       .  S
C2026      C2031   1.507       .  S
C2027      C2028   1.422       .  A
C2027      C2032   1.453       .  S
C2028      C2044   1.449       .  S
C2029      C2030   1.447       .  A
C2030      C2033   1.447       .  S
C2031      C2038   1.411       .  A
C2032      N2049   1.157       .  T
C2033      N2051   1.157       .  T
C2034      C2035   1.415       .  A
C2034      C2039   1.449       .  S
C2035      C2041   1.450       .  S
C2036      C2037   1.418       .  A
C2037      C2038   1.412       .  A
C2037      C2040   1.451       .  S
C2038      C2042   1.452       .  S
C2039      N2046   1.157       .  T
C2040      N2047   1.157       .  T
C2041      N2045   1.157       .  T
C2042      N2048   1.157       .  T
C2043      N2052   1.157       .  T
C2044      N2050   1.157       .  T
C2053      C2054   1.401       .  A
C2053      C2058   1.420       .  A
C2053      C2071   1.455       .  S
C2054      C2059   1.501       .  S
C2055      C2056   1.413       .  A
C2055      C2060   1.456       .  S
C2056      C2057   1.448   1_565  A
C2056      C2072   1.446       .  S
C2058      C2061   1.448       .  S
C2059      C2062   1.411       .  A
C2060      N2077   1.157       .  T
C2061      N2079   1.157       .  T
C2062      C2063   1.409       .  A
C2062      C2067   1.452       .  S
C2063      C2064   1.417       .  A
C2063      C2069   1.451       .  S
C2065      C2066   1.415       .  A
C2065      C2068   1.449       .  S
C2066      C2070   1.450       .  S
C2067      N2074   1.157       .  T
C2068      N2075   1.156       .  T
C2069      N2073   1.157       .  T
C2070      N2076   1.157       .  T
C2071      N2080   1.157       .  T
C2072      N2078   1.156       .  T
C2081      C2082   1.410       .  A
C2081      C2086   1.416       .  A
C2081      C2099   1.449       .  S
C2082      C2083   1.405       .  A
C2082      C2087   1.502       .  S
C2083      C2084   1.410       .  A
C2083      C2088   1.454       .  S
C2084      C2085   1.424       .  A
C2084      C2100   1.448       .  S
C2085      C2086   1.422       .  A
C2086      C2089   1.451       .  S
C2087      C2090   1.400       .  A
C2087      C2094   1.399       .  A
C2088      N2105   1.157       .  T
C2089      N2107   1.158       .  T
C2090      C2091   1.417       .  A
C2090      C2095   1.454       .  S
C2091      C2092   1.448       .  A
C2091      C2097   1.450       .  S
C2092      C2093   1.450       .  A
C2093      C2094   1.418       .  A
C2093      C2096   1.447       .  S
C2094      C2098   1.457       .  S
C2095      N2102   1.157       .  T
C2096      N2103   1.157       .  T
C2097      N2101   1.157       .  T
C2098      N2104   1.157       .  T
C2099      N2108   1.157       .  T
C2100      N2106   1.156       .  T
C2109      C2110   1.400       .  A
C2109      C2114   1.421       .  A
C2109      C2127   1.455       .  S
C2110      C2111   1.400       .  A
C2110      C2115   1.508       .  S
C2111      C2112   1.420       .  A
C2111      C2116   1.455       .  S
C2112      C2113   1.451       .  A
C2112      C2128   1.449       .  S
C2113      C2114   1.450       .  A
C2114      C2117   1.444       .  S
C2115      C2118   1.412       .  A
C2115      C2122   1.415       .  A
C2116      N2133   1.157       .  T
C2117      N2135   1.157       .  T
C2118      C2119   1.412       .  A
C2118      C2123   1.452       .  S
C2119      C2120   1.416       .  A
C2119      C2125   1.450       .  S
C2120      C2121   1.413       .  A
C2121      C2122   1.414       .  A
C2121      C2124   1.451       .  S
C2122      C2126   1.448       .  S
C2123      N2130   1.157       .  T
C2124      N2131   1.157       .  T
C2125      N2129   1.157       .  T
C2126      N2132   1.157       .  T
C2127      N2136   1.157       .  T
C2128      N2134   1.157   1_565  T
C2137      C2138   1.411       .  A
C2137      C2142   1.411       .  A
C2137      C2155   1.452       .  S
C2138      C2139   1.411       .  A
C2138      C2143   1.501       .  S
C2139      C2140   1.413       .  A
C2139      C2144   1.452       .  S
C2140      C2141   1.415       .  A
C2140      C2156   1.447       .  S
C2141      C2142   1.419       .  A
C2142      C2145   1.452       .  S
C2143      C2146   1.411       .  A
C2143      C2150   1.415       .  A
C2144      N2161   1.157       .  T
C2145      N2163   1.157       .  T
C2146      C2147   1.411       .  A
C2146      C2151   1.451       .  S
C2147      C2148   1.416       .  A
C2147      C2153   1.451       .  S
C2148      C2149   1.413       .  A
C2149      C2150   1.411       .  A
C2149      C2152   1.450       .  S
C2150      C2154   1.452       .  S
C2151      N2158   1.157       .  T
C2152      N2159   1.157       .  T
C2153      N2157   1.157       .  T
C2154      N2160   1.157       .  T
C2155      N2164   1.157       .  T
C2156      N2162   1.157       .  T
C2165      C2166   1.412       .  A
C2165      C2170   1.411       .  A
C2165      C2183   1.451       .  S
C2166      C2167   1.411       .  A
C2166      C2171   1.503       .  S
C2167      C2168   1.412       .  A
C2167      C2172   1.452       .  S
C2168      C2169   1.415       .  A
C2168      C2184   1.447       .  S
C2169      C2170   1.416       .  A
C2170      C2173   1.452       .  S
C2171      C2174   1.408       .  A
C2171      C2178   1.414       .  A
C2172      N2189   1.157       .  T
C2173      N2191   1.157       .  T
C2174      C2175   1.412       .  A
C2174      C2179   1.452       .  S
C2175      C2176   1.419       .  A
C2175      C2181   1.447       .  S
C2176      C2177   1.415       .  A
C2177      C2178   1.414       .  A
C2177      C2180   1.450       .  S
C2178      C2182   1.452       .  S
C2179      N2186   1.157       .  T
C2180      N2187   1.157       .  T
C2181      N2185   1.155       .  T
C2182      N2188   1.157       .  T
C2183      N2192   1.157       .  T
C2184      N2190   1.157       .  T
C2193      C2194   1.412       .  A
C2193      C2198   1.410       .  A
C2193      C2211   1.451       .  S
C2194      C2195   1.413       .  A
C2194      C2199   1.507       .  S
C2195      C2196   1.416       .  A
C2195      C2200   1.450       .  S
C2196      C2197   1.415       .  A
C2196      C2212   1.449       .  S
C2197      C2198   1.416       .  A
C2198      C2201   1.451       .  S
C2199      C2202   1.408       .  A
C2199      C2206   1.410       .  A
C2200      N2217   1.157       .  T
C2201      N2219   1.157       .  T
C2202      C2203   1.415       .  A
C2202      C2207   1.452       .  S
C2203      C2204   1.430       .  A
C2203      C2209   1.453       .  S
C2204      C2205   1.427       .  A
C2205      C2206   1.415       .  A
C2205      C2208   1.451       .  S
C2206      C2210   1.452       .  S
C2207      N2214   1.157       .  T
C2208      N2215   1.157       .  T
C2209      N2213   1.158       .  T
C2210      N2216   1.157       .  T
C2211      N2220   1.157       .  T
C2212      N2218   1.157       .  T
C2221      C2222   1.412       .  A
C2221      C2226   1.412       .  A
C2221      C2239   1.451       .  S
C2222      C2223   1.410       .  A
C2222      C2227   1.496       .  S
C2223      C2224   1.406       .  A
C2223      C2228   1.451       .  S
C2224      C2225   1.416       .  A
C2224      C2240   1.453       .  S
C2225      C2226   1.413       .  A
C2226      C2229   1.449       .  S
C2227      C2230   1.408       .  A
C2227      C2234   1.405       .  A
C2228      N2245   1.157       .  T
C2229      N2247   1.157       .  T
C2230      C2231   1.412       .  A
C2230      C2235   1.454       .  S
C2231      C2232   1.428       .  A
C2231      C2237   1.452       .  S
C2232      C2233   1.430       .  A
C2233      C2234   1.411       .  A
C2233      C2236   1.452       .  S
C2234      C2238   1.452       .  S
C2235      N2242   1.157       .  T
C2236      N2243   1.158       .  T
C2237      N2241   1.158       .  T
C2238      N2244   1.157       .  T
C2239      N2248   1.157       .  T
C2240      N2246   1.158       .  T
C2249      C2250   1.416       .  A
C2249      C2254   1.412       .  A
C2249      C2267   1.450       .  S
C2250      C2255   1.510       .  S
C2251      C2252   1.412       .  A
C2251      C2256   1.451       .  S
C2252      C2268   1.452       .  S
C2253      C2254   1.410       .  A
C2254      C2257   1.450       .  S
C2255      C2262   1.401       .  A
C2256      N2273   1.157       .  T
C2257      N2275   1.157       .  T
C2258      C2259   1.421       .  A
C2258      C2263   1.457       .  S
C2259      C2265   1.449       .  S
C2260      C2261   1.447       .  A
C2261      C2262   1.417       .  A
C2261      C2264   1.449       .  S
C2262      C2266   1.456       .  S
C2263      N2270   1.157       .  T
C2264      N2271   1.157       .  T
C2265      N2269   1.158       .  T
C2266      N2272   1.157       .  T
C2267      N2276   1.157       .  T
C2268      N2274   1.157       .  T
C2277      C2282   1.417       .  A
C2277      C2295   1.450       .  S
C2278      C2279   1.415       .  A
C2278      C2283   1.510       .  S
C2279      C2280   1.411       .  A
C2279      C2284   1.450       .  S
C2280      C2281   1.412       .  A
C2280      C2296   1.452       .  S
C2282      C2285   1.450       .  S
C2283      C2286   1.401       .  A
C2284      N2301   1.157       .  T
C2285      N2303   1.157       .  T
C2286      C2287   1.421       .  A
C2286      C2291   1.455       .  S
C2287      C2288   1.449       .  A
C2287      C2293   1.449       .  S
C2289      C2290   1.421       .  A
C2289      C2292   1.451       .  S
C2290      C2294   1.457       .  S
C2291      N2298   1.157       .  T
C2292      N2299   1.158       .  T
C2293      N2297   1.157       .  T
C2294      N2300   1.157       .  T
C2295      N2304   1.157       .  T
C2296      N2302   1.157       .  T
C2305      C2306   1.400       .  A
C2305      C2310   1.421       .  A
C2305      C2323   1.456       .  S
C2306      C2307   1.401       .  A
C2306      C2311   1.515       .  S
C2307      C2308   1.424       .  A
C2307      C2312   1.456       .  S
C2308      C2309   1.454       .  A
C2308      C2324   1.447       .  S
C2309      C2310   1.453       .  A
C2310      C2313   1.449       .  S
C2311      C2314   1.415       .  A
C2311      C2318   1.415       .  A
C2312      N2329   1.157       .  T
C2313      N2331   1.157       .  T
C2314      C2315   1.413       .  A
C2314      C2319   1.450       .  S
C2315      C2316   1.416       .  A
C2315      C2321   1.452       .  S
C2316      C2317   1.416       .  A
C2317      C2318   1.417       .  A
C2317      C2320   1.449       .  S
C2318      C2322   1.451       .  S
C2319      N2326   1.157       .  T
C2320      N2327   1.157       .  T
C2321      N2325   1.157       .  T
C2322      N2328   1.157       .  T
C2323      N2332   1.157       .  T
C2324      N2330   1.158       .  T
C2333      C2334   1.413       .  A
C2333      C2338   1.412       .  A
C2333      C2351   1.451       .  S
C2334      C2335   1.413       .  A
C2334      C2339   1.505       .  S
C2335      C2336   1.413       .  A
C2335      C2340   1.450       .  S
C2336      C2337   1.413       .  A
C2336      C2352   1.451       .  S
C2337      C2338   1.410       .  A
C2338      C2341   1.448       .  S
C2339      C2342   1.398       .  A
C2339      C2346   1.398       .  A
C2340      N2357   1.157       .  T
C2341      N2359   1.156       .  T
C2342      C2343   1.419       .  A
C2342      C2347   1.456       .  S
C2343      C2344   1.450       .  A
C2343      C2349   1.448       .  S
C2344      C2345   1.453       .  A
C2345      C2346   1.419       .  A
C2345      C2348   1.448   1_565  S
C2346      C2350   1.457       .  S
C2347      N2354   1.157       .  T
C2348      N2355   1.157       .  T
C2349      N2353   1.157       .  T
C2350      N2356   1.157       .  T
C2351      N2360   1.157       .  T
C2352      N2358   1.157       .  T
C2361      C4620   1.611       .  S
C2361      C4648   1.617       .  S
C2361      C4669   1.619       .  S
C2361      C3524   1.620       .  S
C2362      C2363   1.414   1_556  A
C2362      C2367   1.398       .  A
C2362      C3405   1.488       .  S
C2363      C2364   1.405       .  A
C2363      C3349   1.495       .  S
C2364      H2369   1.085       .  S
C2365      C2366   1.417   1_554  A
C2365      C3321   1.498       .  S
C2366      C3377   1.493       .  S
C2367      H2368   1.086       .  S
C2370      C4389   1.608       .  S
C2370      C3237   1.611       .  S
C2370      C4452   1.613       .  S
C2370      C3293   1.609       .  S
C2371      C3104   1.619       .  S
C2371      C3132   1.621       .  S
C2371      C3188   1.620       .  S
C2372      C2373   1.418   1_556  A
C2372      C2377   1.403       .  A
C2372      C3069   1.497       .  S
C2373      C2374   1.404       .  A
C2373      C3020   1.492       .  S
C2374      C3555   1.403       .  A
C2374      H2379   1.085       .  S
C2375      C3554   1.401   1_545  A
C2375      C2376   1.414   1_554  A
C2375      C2985   1.486       .  S
C2376      C3557   1.401       .  A
C2376      C3041   1.492       .  S
C2377      C3556   1.400       .  A
C2377      H2378   1.085       .  S
O2380     Zr2392   2.455       .  S
O2380      C2382   1.289       .  A
O2381     Zr2418   2.411       .  S
O2381      C2382   1.283       .  A
C2382      C3412   1.511       .  S
O2383     Zr2395   2.440       .  S
O2383      C2385   1.288       .  A
O2384     Zr2419   2.433       .  S
O2384      C2385   1.289       .  A
C2385      C3300   1.485       .  S
O2386     Zr2395   2.455       .  S
O2386      C2388   1.290       .  A
O2387     Zr2418   2.402       .  S
O2387      C2388   1.282       .  A
C2388      C3076   1.485       .  S
O2389     Zr2392   2.441       .  S
O2389      C2391   1.288       .  A
O2390     Zr2419   2.450       .  S
O2390      C2391   1.291       .  A
C2391      C3181   1.494       .  S
Zr2392     O2393   2.434       .  S
Zr2392     O2394   2.436       .  S
Zr2392     O2398   2.366       .  S
Zr2392     O2399   2.366       .  S
Zr2392     O2422   2.377       .  S
Zr2392     O2424   2.365       .  S
O2393      H2436   0.990       .  S
O2394      H2435   0.990       .  S
O2394      H2439   0.990       .  S
Zr2395     O2396   2.431       .  S
Zr2395     O2397   2.434       .  S
Zr2395     O2399   2.383       .  S
Zr2395     O2398   2.363       .  S
Zr2395     O2423   2.370       .  S
Zr2395     O2425   2.372       .  S
O2396      H2437   0.989       .  S
O2396      H2440   0.990       .  S
O2397      H2430   0.990       .  S
O2398     Zr2418   2.373       .  S
O2399     Zr2419   2.393       .  S
O2399      H2426   0.963       .  S
O2400     Zr2412   2.450       .  S
O2400      C2402   1.290       .  A
O2401     Zr2419   2.437       .  S
O2401      C2402   1.289       .  A
C2402      C3265   1.512       .  S
O2403     Zr2415   2.458       .  S
O2403      C2405   1.291       .  A
O2404     Zr2418   2.418       .  S
O2404      C2405   1.285       .  A
C2405      C3384   1.510       .  S
O2406     Zr2415   2.445       .  S
O2406      C2408   1.288       .  A
O2407     Zr2419   2.443       .  S
O2407      C2408   1.290       .  A
C2408      C3153   1.490       .  S
O2409     Zr2412   2.462       .  S
O2409      C2411   1.292       .  A
O2410     Zr2418   2.413       .  S
O2410      C2411   1.284       .  A
C2411      C3048   1.493       .  S
Zr2412     O2413   2.430       .  S
Zr2412     O2414   2.435       .  S
Zr2412     O2420   2.375       .  S
Zr2412     O2421   2.361       .  S
Zr2412     O2424   2.379       .  S
Zr2412     O2422   2.381       .  S
O2413      H2433   0.990       .  S
O2413      H2438   0.988       .  S
O2414      H2434   0.990       .  S
Zr2415     O2416   2.434       .  S
Zr2415     O2417   2.435       .  S
Zr2415     O2421   2.371       .  S
Zr2415     O2420   2.371       .  S
Zr2415     O2425   2.378       .  S
Zr2415     O2423   2.368       .  S
O2416      H2432   0.990       .  S
O2417      H2431   0.990       .  S
O2417      H2441   0.989       .  S
Zr2418     O2421   2.369       .  S
Zr2418     O2423   2.380       .  S
Zr2418     O2424   2.384       .  S
Zr2419     O2420   2.387       .  S
Zr2419     O2422   2.387       .  S
Zr2419     O2425   2.389       .  S
O2420      H2428   0.974       .  S
O2423      H2427   0.972       .  S
O2424      H2429   0.963       .  S
O2442     Zr2454   2.447       .  S
O2442      C2444   1.290       .  A
O2443     Zr2480   2.437       .  S
O2443      C2444   1.289       .  A
C2444      C2957   1.496       .  S
O2445     Zr2457   2.466       .  S
O2445      C2447   1.292       .  A
O2446     Zr2481   2.410       .  S
O2446      C2447   1.284       .  A
C2447      C3013   1.514       .  S
O2448     Zr2457   2.446       .  S
O2448      C2450   1.289       .  A
O2449     Zr2480   2.439       .  S
O2449      C2450   1.288       .  A
C2450      C3517   1.488       .  S
O2451     Zr2454   2.459       .  S
O2451      C2453   1.291       .  A
O2452     Zr2481   2.420       .  S
O2452      C2453   1.286       .  A
C2453      C3356   1.493       .  S
Zr2454     O2455   2.434       .  S
Zr2454     O2456   2.428       .  S
Zr2454     O2460   2.374       .  S
Zr2454     O2461   2.371       .  S
Zr2454     O2484   2.366       .  S
Zr2454     O2486   2.381       .  S
O2455      H2498   0.990       .  S
O2456      H2497   0.989       .  S
O2456      H2501   0.989       .  S
Zr2457     O2458   2.436       .  S
Zr2457     O2459   2.434       .  S
Zr2457     O2461   2.368       .  S
Zr2457     O2460   2.375       .  S
Zr2457     O2485   2.374       .  S
Zr2457     O2487   2.370       .  S
O2458      H2499   0.989       .  S
O2458      H2502   0.990       .  S
O2459      H2492   0.990       .  S
O2460     Zr2480   2.386       .  S
O2461     Zr2481   2.376       .  S
O2461      H2488   0.968       .  S
O2462     Zr2474   2.462       .  S
O2462      C2464   1.291       .  A
O2463     Zr2481   2.409       .  S
O2463      C2464   1.283       .  A
C2464      C2992   1.512       .  S
O2465     Zr2477   2.441       .  S
O2465      C2467   1.288       .  A
O2466     Zr2480   2.446       .  S
O2466      C2467   1.290       .  A
C2467      C2929   1.490       .  S
O2468     Zr2477   2.459       .  S
O2468      C2470   1.291       .  A
O2469     Zr2481   2.406       .  S
O2469      C2470   1.283       .  A
C2470      C3328   1.486       .  S
O2471     Zr2474   2.451       .  S
O2471      C2473   1.290       .  A
O2472     Zr2480   2.436       .  S
O2472      C2473   1.288       .  A
C2473      C3496   1.495       .  S
Zr2474     O2475   2.435       .  S
Zr2474     O2476   2.434       .  S
Zr2474     O2482   2.368       .  S
Zr2474     O2483   2.379       .  S
Zr2474     O2486   2.374       .  S
Zr2474     O2484   2.370       .  S
O2475      H2495   0.990       .  S
O2475      H2500   0.990       .  S
O2476      H2496   0.990       .  S
Zr2477     O2478   2.434       .  S
Zr2477     O2479   2.432       .  S
Zr2477     O2483   2.381       .  S
Zr2477     O2482   2.374       .  S
Zr2477     O2487   2.368       .  S
Zr2477     O2485   2.377       .  S
O2478      H2494   0.990       .  S
O2479      H2493   0.989       .  S
O2479      H2503   0.990       .  S
Zr2480     O2483   2.389       .  S
Zr2480     O2485   2.392       .  S
Zr2480     O2486   2.396       .  S
Zr2481     O2482   2.381       .  S
Zr2481     O2484   2.373       .  S
Zr2481     O2487   2.377       .  S
O2482      H2490   0.964       .  S
O2485      H2489   0.969       .  S
O2486      H2491   0.963       .  S
O2504     Zr2516   2.460       .  S
O2504      C2506   1.291       .  A
O2505     Zr3722   2.436       .  S
O2505      C2506   1.288       .  A
C2506      C3125   1.493       .  S
O2507     Zr2519   2.463       .  S
O2507      C2509   1.292       .  A
O2508      C2509   1.287       .  A
C2509      C4004   1.508       .  S
O2510     Zr2519   2.433       .  S
O2510      C2512   1.287       .  A
O2511      C2512   1.294       .  A
C2512      C3244   1.504       .  S
O2513     Zr2516   2.463       .  S
O2513      C2515   1.293       .  A
O2514     Zr3723   2.410       .  S
O2514      C2515   1.285       .  A
C2515      C2908   1.496       .  S
Zr2516     O2518   2.436       .  S
Zr2516     O2546   2.374       .  S
Zr2516     O2548   2.371       .  S
O2517      H2560   0.990       .  S
O2518      H2559   0.989       .  S
O2518      H2563   0.990       .  S
Zr2519     O3700   2.435       .  S
Zr2519     O2521   2.431   1_565  S
Zr2519     O3703   2.362       .  S
Zr2519     O3702   2.376       .  S
Zr2519     O2547   2.382   1_565  S
Zr2519     O2549   2.371   1_565  S
O2520     Zr3699   2.434       .  S
O2520      H2561   0.990       .  S
O2520      H2564   0.990       .  S
O2521      H2554   0.990       .  S
O2522     Zr3699   2.381       .  S
O2523     Zr3699   2.361       .  S
O2523      H2550   0.962       .  S
O2524     Zr2536   2.447       .  S
O2524      C2526   1.288       .  A
O2525     Zr2543   2.421   1_545  S
O2525      C2526   1.286       .  A
C2526      C2845   1.485       .  S
O2527     Zr2539   2.460       .  S
O2527      C2529   1.292       .  A
O2528     Zr2542   2.440       .  S
O2528      C2529   1.290   1_655  A
C2529      C3097   1.507   1_455  S
O2530     Zr2539   2.454       .  S
O2530      C2532   1.291       .  A
O2531     Zr2543   2.416   1_445  S
O2531      C2532   1.286       .  A
C2532      C2880   1.500       .  S
O2533     Zr2536   2.439       .  S
O2533      C2535   1.288       .  A
O2534     Zr2542   2.461       .  S
O2534      C2535   1.294       .  A
C2535      C3216   1.507       .  S
Zr2536     O2537   2.435       .  S
Zr2536     O3718   2.434   1_545  S
Zr2536     O2544   2.372       .  S
Zr2536     O2545   2.376       .  S
Zr2536     O3728   2.372   1_545  S
Zr2536     O3726   2.373   1_545  S
O2537      H2557   0.990       .  S
O2537      H2562   0.990       .  S
O2538     Zr3716   2.432       .  S
O2538      H2558   0.990       .  S
Zr2539     O2540   2.430   1_455  S
Zr2539     O2545   2.374   1_455  S
Zr2539     O2544   2.376   1_455  S
O2540      H2556   0.990       .  S
O2541      H2555   0.990       .  S
O2541      H2565   0.990       .  S
Zr2542     O3685   2.430   1_545  S
Zr2542     O2545   2.382       .  S
Zr2542     O3728   2.392   1_545  S
Zr2543     O3694   2.418       .  S
Zr2543     O2544   2.387   1_565  S
Zr2543     O3726   2.381       .  S
O2544      H2552   0.962       .  S
O2546     Zr3716   2.371       .  S
O2546     Zr3723   2.379       .  S
O2547      H2551   0.966       .  S
O2548     Zr3716   2.381       .  S
O2548     Zr3722   2.392       .  S
O2548      H2553   0.967       .  S
O2566     Zr2578   2.446       .  S
O2566      C2568   1.288       .  A
O2567      C2568   1.290       .  A
C2568      C3461   1.489       .  S
O2569     Zr2581   2.448   1_655  S
O2569      C2571   1.289       .  A
O2570     Zr3785   2.393       .  S
O2570      C2571   1.281       .  A
C2571      C2733   1.478       .  S
O2572     Zr2581   2.442   1_655  S
O2572      C2574   1.289       .  A
O2573     Zr3784   2.430       .  S
O2573      C2574   1.288       .  A
C2574      C2649   1.493       .  S
O2575     Zr2578   2.454       .  S
O2575      C2577   1.290       .  A
O2576      C2577   1.286       .  A
C2577      C3948   1.503       .  S
Zr2578     O3759   2.435       .  S
Zr2578     O2580   2.435   1_565  S
Zr2578     O3764   2.375       .  S
Zr2578     O3765   2.369       .  S
Zr2578     O2608   2.374   1_565  S
Zr2578     O2610   2.372   1_565  S
O2579     Zr3758   2.433       .  S
O2579      H2622   0.990       .  S
O2580      H2621   0.990       .  S
O2580      H2625   0.990       .  S
Zr2581     O2583   2.434   1_455  S
Zr2581     O2609   2.375   1_455  S
Zr2581     O2611   2.367   1_455  S
O2582      H2623   0.990       .  S
O2582      H2626   0.990       .  S
O2583      H2616   0.990       .  S
O2584     Zr3758   2.380       .  S
O2585     Zr3758   2.357       .  S
O2585      H2612   0.960       .  S
O2586     Zr2598   2.470       .  S
O2586      C2588   1.294       .  A
O2587     Zr2605   2.407       .  S
O2587      C2588   1.284       .  A
C2588      C2705   1.496       .  S
O2589     Zr2601   2.425       .  S
O2589      C2591   1.284       .  A
O2590     Zr2604   2.455       .  S
O2590      C2591   1.292       .  A
C2591      C3433   1.486       .  S
O2592     Zr2601   2.460       .  S
O2592      C2594   1.291       .  A
O2593     Zr2605   2.412       .  S
O2593      C2594   1.284   1_545  A
C2594      C2796   1.502       .  S
O2595     Zr2598   2.461       .  S
O2595      C2597   1.293   1_655  A
O2596     Zr2604   2.424   1_445  S
O2596      C2597   1.286       .  A
C2597      C2677   1.495       .  S
Zr2598     O2599   2.436       .  S
Zr2598     O2606   2.373       .  S
Zr2598     O2607   2.376       .  S
O2599      H2619   0.990       .  S
O2599      H2624   0.990       .  S
O2600      H2620   0.990       .  S
Zr2601     O2602   2.435   1_565  S
Zr2601     O3783   2.435       .  S
Zr2601     O2607   2.382   1_565  S
Zr2601     O2606   2.362   1_565  S
Zr2601     O3791   2.370       .  S
Zr2601     O3789   2.379       .  S
O2602      H2618   0.990       .  S
O2603     Zr3781   2.436       .  S
O2603      H2617   0.990       .  S
O2603      H2627   0.990       .  S
Zr2604     O3753   2.431       .  S
Zr2604     O2607   2.391   1_565  S
Zr2604     O3789   2.388       .  S
Zr2605     O3750   2.410   1_545  S
Zr2605     O2606   2.379       .  S
Zr2605     O3791   2.379   1_545  S
O2606      H2614   0.965       .  S
O2609     Zr3781   2.376       .  S
O2609     Zr3784   2.394       .  S
O2609      H2613   0.967       .  S
O2610      H2615   0.967       .  S
O2611     Zr3781   2.363       .  S
O2611     Zr3785   2.375       .  S
C2628      C2629   1.413       .  A
C2628      C2633   1.397       .  A
C2628      C2901   1.491       .  S
C2629      C2630   1.402       .  A
C2629      C2740   1.483       .  S
C2630      C2631   1.399       .  A
C2630      H2635   1.086       .  S
C2631      C2632   1.415       .  A
C2631      C2712   1.493       .  S
C2632      C2633   1.399       .  A
C2632      C2873   1.486       .  S
C2633      H2634   1.086       .  S
C2636      C2637   1.415       .  A
C2636      C2641   1.405       .  A
C2636      C2852   1.497       .  S
C2637      C2638   1.402       .  A
C2637      C2789   1.493       .  S
C2638      C2639   1.404       .  A
C2638      H2643   1.085       .  S
C2639      C2640   1.419       .  A
C2639      C2761   1.494       .  S
C2640      C2641   1.406       .  A
C2640      C2817   1.500       .  S
C2641      H2642   1.085       .  S
C2644      C2656   1.608       .  S
C2644      C2684   1.611       .  S
C2644      C2964   1.617       .  S
C2645      C2646   1.410       .  A
C2645      C2650   1.412       .  A
C2646      C2647   1.410   1_655  A
C2646      C2651   1.499       .  S
C2647      C2648   1.409       .  A
C2647      C2652   1.451       .  S
C2648      C2649   1.418   1_455  A
C2648      C2664   1.451       .  S
C2649      C2650   1.418       .  A
C2651      C2658   1.403       .  A
C2652      N2669   1.157       .  T
C2653      N2671   1.157       .  T
C2654      C2655   1.413       .  A
C2654      C2659   1.457       .  S
C2655      C2661   1.451       .  S
C2656      C2657   1.446       .  A
C2657      C2658   1.419       .  A
C2657      C2660   1.451       .  S
C2658      C2662   1.454       .  S
C2659      N2666   1.157       .  T
C2660      N2667   1.157       .  T
C2661      N2665   1.158       .  T
C2662      N2668   1.157       .  T
C2663      N2672   1.157       .  T
C2664      N2670   1.157       .  T
C2673      C2674   1.413       .  A
C2673      C2678   1.410       .  A
C2673      C2691   1.452       .  S
C2674      C2675   1.415   1_455  A
C2674      C2679   1.507       .  S
C2675      C2676   1.413       .  A
C2675      C2680   1.450       .  S
C2676      C2677   1.416   1_655  A
C2676      C2692   1.449       .  S
C2677      C2678   1.416       .  A
C2678      C2681   1.450       .  S
C2679      C2686   1.403   1_455  A
C2681      N2699   1.157       .  T
C2682      C2683   1.417       .  A
C2682      C2687   1.453       .  S
C2683      C2689   1.449       .  S
C2684      C2685   1.448       .  A
C2685      C2686   1.414       .  A
C2685      C2688   1.445       .  S
C2686      C2690   1.457       .  S
C2687      N2694   1.157       .  T
C2688      N2695   1.157   1_655  T
C2689      N2693   1.157       .  T
C2690      N2696   1.157       .  T
C2691      N2700   1.157       .  T
C2692      N2698   1.158       .  T
C2701      C2706   1.414       .  A
C2701      C2719   1.451       .  S
C2702      C2703   1.408       .  A
C2702      C2707   1.500       .  S
C2703      C2704   1.409       .  A
C2703      C2708   1.453       .  S
C2704      C2705   1.420       .  A
C2704      C2720   1.448       .  S
C2706      C2709   1.450       .  S
C2707      C2710   1.411       .  A
C2708      N2725   1.157       .  T
C2709      N2727   1.157       .  T
C2710      C2711   1.408       .  A
C2710      C2715   1.452       .  S
C2711      C2717   1.454       .  S
C2712      C2713   1.414       .  A
C2713      C2714   1.411       .  A
C2713      C2716   1.447       .  S
C2714      C2718   1.450       .  S
C2715      N2722   1.157       .  T
C2716      N2723   1.157       .  T
C2717      N2721   1.158       .  T
C2718      N2724   1.157       .  T
C2719      N2728   1.157       .  T
C2720      N2726   1.156       .  T
C2729      C2730   1.402       .  A
C2729      C2734   1.404       .  A
C2729      C2747   1.453       .  S
C2730      C2735   1.482       .  S
C2731      C2732   1.407       .  A
C2731      C2736   1.451       .  S
C2732      C2733   1.412       .  A
C2732      C2748   1.451       .  S
C2734      C2737   1.447       .  S
C2735      C2742   1.405       .  A
C2736      N2753   1.157       .  T
C2737      N2755   1.155       .  T
C2738      C2739   1.410       .  A
C2738      C2743   1.452       .  S
C2739      C2745   1.449       .  S
C2740      C2741   1.419       .  A
C2741      C2742   1.402       .  A
C2741      C2744   1.453       .  S
C2742      C2746   1.453       .  S
C2743      N2750   1.157       .  T
C2744      N2751   1.157       .  T
C2745      N2749   1.157       .  T
C2746      N2752   1.157       .  T
C2747      N2756   1.157       .  T
C2748      N2754   1.157       .  T
C2757      C2758   1.411       .  A
C2757      C2762   1.413       .  A
C2757      C2775   1.451       .  S
C2758      C3939   1.408       .  A
C2758      C2763   1.497       .  S
C2759      C3938   1.409   1_545  A
C2759      C2760   1.407       .  A
C2759      C2764   1.452       .  S
C2760      C3941   1.418   1_545  A
C2760      C2776   1.453       .  S
C2761      C3940   1.419       .  A
C2761      C2762   1.414       .  A
C2762      C2765   1.448       .  S
C2763      C3946   1.406       .  A
C2763      C2770   1.409       .  A
C2764      N2781   1.157       .  T
C2765      N2783   1.157       .  T
C2766      C3943   1.405   1_545  A
C2766      C2767   1.409       .  A
C2766      C2771   1.453       .  S
C2767      C3948   1.424   1_545  A
C2767      C2773   1.450       .  S
C2768      C3947   1.424       .  A
C2768      C2769   1.421       .  A
C2768      C3757   1.505       .  S
C2769      C2770   1.413       .  A
C2769      C2772   1.450       .  S
C2770      C2774   1.452       .  S
C2771      N2778   1.157       .  T
C2772      N2779   1.157       .  T
C2773      N2777   1.156       .  T
C2774      N2780   1.157       .  T
C2775      N2784   1.157       .  T
C2776      N2782   1.157       .  T
C2785      C2786   1.408       .  A
C2785      C2790   1.409       .  A
C2785      C2803   1.451       .  S
C2786      C3967   1.412       .  A
C2786      C3971   1.497       .  S
C2787      C3966   1.412   1_545  A
C2787      C2788   1.415       .  A
C2787      C2792   1.450       .  S
C2788      C3969   1.414   1_545  A
C2788      C2804   1.448       .  S
C2789      C3968   1.413       .  A
C2789      C2790   1.418       .  A
C2790      C2793   1.452       .  S
C2791      C3974   1.411   1_565  A
C2791      C2798   1.406       .  A
C2791      C3966   1.500       .  S
C2792      N2809   1.157       .  T
C2793      N2811   1.157       .  T
C2794      C3971   1.408       .  A
C2794      C3975   1.412       .  A
C2794      C2799   1.452       .  S
C2795      C3974   1.415       .  A
C2795      C2796   1.420   1_545  A
C2795      C2801   1.451       .  S
C2796      C2797   1.423       .  A
C2797      C2798   1.410       .  A
C2797      C2800   1.448       .  S
C2798      C2802   1.452       .  S
C2799      N2806   1.157       .  T
C2800      N2807   1.156       .  T
C2801      N3985   1.157       .  T
C2802      N2808   1.157       .  T
C2803      N2812   1.157       .  T
C2804      N2810   1.157       .  T
N2805      C3981   1.157       .  T
C2813      C3994   1.411   1_545  A
C2813      C2818   1.415       .  A
C2813      C2831   1.451       .  S
C2814      C3993   1.414       .  A
C2814      C2815   1.411       .  A
C2814      C2819   1.507       .  S
C2815      C2816   1.411       .  A
C2815      C2820   1.450       .  S
C2816      C2817   1.419       .  A
C2816      C2832   1.453       .  S
C2817      C3998   1.414       .  A
C2818      C3997   1.416   1_545  A
C2818      C2821   1.447       .  S
C2819      C2822   1.410       .  A
C2819      C4006   1.413       .  A
C2820      N2837   1.157       .  T
C2821      N2839   1.157       .  T
C2822      C2823   1.416       .  A
C2822      C2827   1.451       .  S
C2823      C2824   1.420       .  A
C2823      C2829   1.449       .  S
C2824      C4005   1.418       .  A
C2824      C3689   1.503       .  S
C2825      C4004   1.421   1_545  A
C2825      C2826   1.414       .  A
C2825      C2828   1.450       .  S
C2826      C3999   1.409   1_545  A
C2826      C2830   1.452       .  S
C2827      N2834   1.157       .  T
C2828      N2835   1.157       .  T
C2829      N2833   1.157       .  T
C2830      N2836   1.157       .  T
C2831      N2840   1.157       .  T
C2832      N2838   1.157       .  T
C2841      C4022   1.413       .  A
C2841      C2846   1.413       .  A
C2841      C2859   1.451       .  S
C2842      C4021   1.414   1_545  A
C2842      C2843   1.412       .  A
C2842      C4027   1.501       .  S
C2843      C2844   1.411       .  A
C2843      C2848   1.450       .  S
C2844      C2845   1.413       .  A
C2844      C2860   1.450       .  S
C2845      C4026   1.413   1_545  A
C2846      C4025   1.416       .  A
C2846      C2849   1.450       .  S
C2847      C2850   1.411       .  A
C2847      C2854   1.412       .  A
C2847      C4022   1.502       .  S
C2848      N2865   1.157       .  T
C2849      N2867   1.157       .  T
C2850      C2851   1.411       .  A
C2850      C4035   1.451       .  S
C2851      C2852   1.418       .  A
C2851      C2857   1.452       .  S
C2852      C2853   1.414       .  A
C2853      C2854   1.413       .  A
C2853      C2856   1.448       .  S
C2854      C2858   1.451       .  S
C2855      C4030   1.451       .  S
C2855      N2862   1.157       .  T
C2856      N2863   1.157       .  T
C2857      N2861   1.157       .  T
C2858      N2864   1.157       .  T
C2859      N2868   1.157       .  T
C2860      N2866   1.157       .  T
C2869      C2874   1.405       .  A
C2869      C2887   1.451       .  S
C2870      C2871   1.410   1_455  A
C2870      C2875   1.491       .  S
C2871      C2872   1.411       .  A
C2871      C2876   1.450       .  S
C2872      C2888   1.448       .  S
C2873      C2874   1.420       .  A
C2874      C2877   1.455       .  S
C2875      C2882   1.404       .  A
C2876      N2893   1.157       .  T
C2877      N2895   1.158       .  T
C2878      C2879   1.412       .  A
C2878      C2883   1.453       .  S
C2879      C2885   1.450       .  S
C2880      C2881   1.424       .  A
C2881      C2882   1.411       .  A
C2881      C2884   1.450       .  S
C2882      C2886   1.452       .  S
C2883      N2890   1.157       .  T
C2884      N2891   1.157       .  T
C2885      N2889   1.157       .  T
C2886      N2892   1.157       .  T
C2887      N2896   1.157       .  T
C2888      N2894   1.157       .  T
C2897      C2902   1.411       .  A
C2897      C2915   1.452       .  S
C2898      C2899   1.408       .  A
C2898      C2903   1.495       .  S
C2899      C2900   1.407       .  A
C2899      C2904   1.452       .  S
C2900      C2916   1.452       .  S
C2901      C2902   1.415       .  A
C2902      C2905   1.447       .  S
C2903      C2910   1.409   1_655  A
C2904      N2921   1.157       .  T
C2905      N2923   1.157       .  T
C2906      C2907   1.405       .  A
C2906      C2911   1.453       .  S
C2907      C2913   1.448       .  S
C2908      C2909   1.419   1_655  A
C2909      C2910   1.412       .  A
C2909      C2912   1.450       .  S
C2910      C2914   1.451       .  S
C2911      N2918   1.157       .  T
C2912      N2919   1.157       .  T
C2913      N2917   1.155       .  T
C2914      N2920   1.157       .  T
C2915      N2924   1.157       .  T
C2916      N2922   1.157       .  T
C2925      C2926   1.415       .  A
C2925      C2930   1.414       .  A
C2925      C2943   1.451       .  S
C2926      C2927   1.416       .  A
C2926      C2931   1.511       .  S
C2927      C2928   1.412       .  A
C2927      C2932   1.452       .  S
C2928      C2929   1.414       .  A
C2928      C2944   1.452       .  S
C2929      C2930   1.412       .  A
C2930      C2933   1.448       .  S
C2931      C2934   1.404       .  A
C2931      C2938   1.402       .  A
C2932      N2949   1.157       .  T
C2933      N2951   1.156       .  T
C2934      C2935   1.419       .  A
C2934      C2939   1.454       .  S
C2935      C2936   1.449       .  A
C2935      C2941   1.452       .  S
C2936      C2937   1.449       .  A
C2937      C2938   1.419       .  A
C2937      C2940   1.445       .  S
C2938      C2942   1.458       .  S
C2939      N2946   1.157       .  T
C2941      N2945   1.157       .  T
C2942      N2948   1.157       .  T
C2943      N2952   1.157       .  T
C2944      N2950   1.157       .  T
C2953      C2954   1.414       .  A
C2953      C2958   1.417       .  A
C2953      C2971   1.450       .  S
C2954      C2955   1.412       .  A
C2954      C2959   1.508       .  S
C2955      C2956   1.409       .  A
C2955      C2960   1.451       .  S
C2956      C2957   1.416       .  A
C2956      C2972   1.450       .  S
C2957      C2958   1.418       .  A
C2958      C2961   1.450       .  S
C2959      C2962   1.400       .  A
C2959      C2966   1.399       .  A
C2960      N2977   1.157       .  T
C2961      N2979   1.157       .  T
C2962      C2963   1.420       .  A
C2962      C2967   1.456       .  S
C2963      C2964   1.454       .  A
C2963      C2969   1.450       .  S
C2964      C2965   1.451       .  A
C2965      C2966   1.420       .  A
C2965      C2968   1.448       .  S
C2966      C2970   1.456       .  S
C2967      N2974   1.157       .  T
C2968      N2975   1.157       .  T
C2969      N2973   1.158       .  T
C2970      N2976   1.157       .  T
C2971      N2980   1.157       .  T
C2972      N2978   1.157       .  T
C2981      C2982   1.412       .  A
C2981      C2986   1.413       .  A
C2981      C2999   1.450       .  S
C2982      C2983   1.409       .  A
C2982      C2987   1.496       .  S
C2983      C2984   1.403       .  A
C2983      C2988   1.451       .  S
C2984      C2985   1.414       .  A
C2984      C3000   1.452       .  S
C2985      C2986   1.414       .  A
C2986      C2989   1.449       .  S
C2987      C2990   1.404       .  A
C2987      C2994   1.408       .  A
C2988      N3005   1.157       .  T
C2989      N3007   1.157       .  T
C2990      C2991   1.413       .  A
C2990      C2995   1.452       .  S
C2991      C2992   1.431       .  A
C2991      C2997   1.452       .  S
C2992      C2993   1.425       .  A
C2993      C2994   1.411       .  A
C2993      C2996   1.451       .  S
C2994      C2998   1.454       .  S
C2995      N3002   1.157       .  T
C2996      N3003   1.157       .  T
C2997      N3001   1.158       .  T
C2998      N3004   1.157       .  T
C2999      N3008   1.157       .  T
C3000      N3006   1.157       .  T
C3009      C3010   1.407       .  A
C3009      C3014   1.414       .  A
C3009      C3027   1.452       .  S
C3010      C3011   1.409       .  A
C3010      C3015   1.501       .  S
C3011      C3012   1.412       .  A
C3011      C3016   1.453       .  S
C3012      C3013   1.424       .  A
C3012      C3028   1.450       .  S
C3013      C3014   1.431       .  A
C3014      C3017   1.452       .  S
C3015      C3018   1.411       .  A
C3015      C3022   1.413       .  A
C3016      N3033   1.157       .  T
C3017      N3035   1.158       .  T
C3018      C3019   1.412       .  A
C3018      C3023   1.450       .  S
C3019      C3020   1.414       .  A
C3019      C3025   1.449       .  S
C3020      C3021   1.416       .  A
C3021      C3022   1.410       .  A
C3021      C3024   1.452       .  S
C3022      C3026   1.452       .  S
C3023      N3030   1.157       .  T
C3024      N3031   1.158       .  T
C3025      N3029   1.157       .  T
C3026      N3032   1.157       .  T
C3027      N3036   1.157       .  T
C3028      N3034   1.157       .  T
C3037      C3038   1.408       .  A
C3037      C3042   1.409       .  A
C3037      C3055   1.451       .  S
C3038      C3039   1.408       .  A
C3038      C3043   1.493       .  S
C3039      C3040   1.409       .  A
C3039      C3044   1.452       .  S
C3040      C3041   1.416       .  A
C3040      C3056   1.447       .  S
C3041      C3042   1.417       .  A
C3042      C3045   1.451       .  S
C3043      C3046   1.411       .  A
C3043      C3050   1.405       .  A
C3044      N3061   1.157       .  T
C3045      N3063   1.157       .  T
C3046      C3047   1.410       .  A
C3046      C3051   1.452       .  S
C3047      C3048   1.416       .  A
C3047      C3053   1.449       .  S
C3048      C3049   1.420       .  A
C3049      C3050   1.410       .  A
C3049      C3052   1.447       .  S
C3050      C3054   1.452       .  S
C3051      N3058   1.157       .  T
C3052      N3059   1.155       .  T
C3053      N3057   1.157       .  T
C3054      N3060   1.157       .  T
C3055      N3064   1.157       .  T
C3056      N4242   1.157       .  T
N3062      C4236   1.157       .  T
C3065      C3066   1.408       .  A
C3065      C3070   1.408       .  A
C3065      C3083   1.451       .  S
C3066      C3067   1.409       .  A
C3066      C3071   1.495       .  S
C3067      C3068   1.412       .  A
C3067      C3072   1.452       .  S
C3068      C3069   1.416       .  A
C3068      C3084   1.447       .  S
C3069      C3070   1.420       .  A
C3070      C3073   1.453       .  S
C3071      C3074   1.412       .  A
C3071      C3078   1.408       .  A
C3072      N3089   1.157       .  T
C3073      N3091   1.157       .  T
C3074      C3075   1.410       .  A
C3074      C3079   1.451       .  S
C3075      C3076   1.414       .  A
C3075      C3081   1.451       .  S
C3076      C3077   1.417       .  A
C3077      C3078   1.409       .  A
C3077      C3080   1.451       .  S
C3078      C3082   1.451       .  S
C3079      N3086   1.157       .  T
C3080      N3087   1.157       .  T
C3081      N3085   1.157       .  T
C3082      N3088   1.157       .  T
C3083      N3092   1.157       .  T
C3084      N3090   1.157       .  T
C3093      C3094   1.413   1_455  A
C3093      C3098   1.415       .  A
C3093      C3111   1.451       .  S
C3094      C3095   1.413       .  A
C3094      C3099   1.514       .  S
C3095      C3096   1.417       .  A
C3095      C3100   1.452       .  S
C3096      C3097   1.420       .  A
C3096      C3112   1.450       .  S
C3097      C3098   1.419   1_655  A
C3098      C3101   1.451       .  S
C3099      C3102   1.402       .  A
C3100      N3117   1.157       .  T
C3101      N3119   1.157       .  T
C3102      C3103   1.421       .  A
C3102      C3107   1.455       .  S
C3103      C3104   1.450       .  A
C3103      C3109   1.449       .  S
C3105      C3106   1.420       .  A
C3105      C3108   1.447       .  S
C3106      C3110   1.456       .  S
C3107      N3114   1.157       .  T
C3108      N3115   1.157       .  T
C3109      N3113   1.157       .  T
C3110      N3116   1.157       .  T
C3112      N3118   1.157       .  T
C3121      C3126   1.417       .  A
C3121      C3139   1.451       .  S
C3122      C3123   1.416       .  A
C3122      C3127   1.512       .  S
C3123      C3124   1.415       .  A
C3123      C3128   1.449       .  S
C3124      C3125   1.413       .  A
C3124      C3140   1.451       .  S
C3126      C3129   1.449       .  S
C3127      C3134   1.400       .  A
C3128      N3145   1.157       .  T
C3129      N3147   1.157       .  T
C3130      C3131   1.424       .  A
C3130      C3135   1.454       .  S
C3131      C3137   1.449       .  S
C3132      C3133   1.453       .  A
C3133      C3134   1.421       .  A
C3133      C3136   1.447   1_655  S
C3134      C3138   1.457       .  S
C3135      N3142   1.157       .  T
C3136      N3143   1.157       .  T
C3137      N3141   1.157       .  T
C3138      N3144   1.157       .  T
C3139      N3148   1.157       .  T
C3140      N3146   1.157       .  T
C3149      C3150   1.414       .  A
C3149      C3154   1.414       .  A
C3149      C3167   1.451       .  S
C3150      C3151   1.414       .  A
C3150      C3155   1.510       .  S
C3151      C3152   1.414       .  A
C3151      C3156   1.448       .  S
C3152      C3153   1.411       .  A
C3152      C3168   1.450       .  S
C3153      C3154   1.414       .  A
C3154      C3157   1.450       .  S
C3155      C3158   1.400       .  A
C3155      C3162   1.401       .  A
C3156      N3173   1.157       .  T
C3157      N3175   1.157       .  T
C3158      C3159   1.422       .  A
C3158      C3163   1.454       .  S
C3159      C3160   1.451       .  A
C3159      C3165   1.449       .  S
C3160      C3161   1.452       .  A
C3161      C3162   1.419       .  A
C3161      C3164   1.449       .  S
C3162      C3166   1.456       .  S
C3163      N3170   1.157       .  T
C3165      N3169   1.157       .  T
C3166      N3172   1.157       .  T
C3167      N3176   1.157       .  T
C3168      N3174   1.156       .  T
C3177      C3178   1.414       .  A
C3177      C3182   1.410       .  A
C3177      C3195   1.452       .  S
C3178      C3179   1.416       .  A
C3178      C3183   1.512       .  S
C3179      C3180   1.418       .  A
C3179      C3184   1.450       .  S
C3180      C3181   1.414       .  A
C3180      C3196   1.448       .  S
C3181      C3182   1.414       .  A
C3182      C3185   1.449       .  S
C3183      C3186   1.400       .  A
C3183      C3190   1.399       .  A
C3184      N3201   1.157       .  T
C3185      N3203   1.156       .  T
C3186      C3187   1.421       .  A
C3186      C3191   1.455       .  S
C3187      C3188   1.451       .  A
C3187      C3193   1.449       .  S
C3188      C3189   1.455       .  A
C3189      C3190   1.422       .  A
C3189      C3192   1.448       .  S
C3190      C3194   1.457       .  S
C3191      N3198   1.157       .  T
C3192      N3199   1.158       .  T
C3193      N3197   1.157       .  T
C3194      N3200   1.157       .  T
C3195      N3204   1.157       .  T
C3196      N3202   1.157       .  T
C3205      C3206   1.399       .  A
C3205      C3210   1.418       .  A
C3205      C3223   1.457       .  S
C3206      C4387   1.401   1_545  A
C3206      C3211   1.511       .  S
C3207      C4386   1.400       .  A
C3207      C3208   1.419       .  A
C3207      C3212   1.454       .  S
C3208      C4389   1.449       .  A
C3208      C3224   1.450       .  S
C3209      C3550   1.620       .  S
C3209      C4388   1.449   1_545  A
C3209      C3210   1.454       .  A
C3210      C3213   1.449       .  S
C3211      C4394   1.411   1_545  A
C3211      C3218   1.412       .  A
C3212      N3229   1.157       .  T
C3213      N3231   1.158       .  T
C3214      C4391   1.410       .  A
C3214      C3215   1.412       .  A
C3214      C3219   1.449       .  S
C3215      C4396   1.416       .  A
C3215      C3221   1.448       .  S
C3216      C4395   1.419   1_545  A
C3216      C3217   1.421       .  A
C3217      C3218   1.415       .  A
C3217      C3220   1.451       .  S
C3218      C3222   1.452       .  S
C3219      N3226   1.157       .  T
C3220      N3227   1.157       .  T
C3221      N3225   1.156       .  T
C3222      N3228   1.157       .  T
C3223      N3232   1.157       .  T
C3224      N3230   1.157       .  T
C3233      C3234   1.402   1_545  A
C3233      C3238   1.424       .  A
C3233      C3251   1.453       .  S
C3234      C4415   1.398       .  A
C3234      C3239   1.509       .  S
C3235      C4414   1.397       .  A
C3235      C3236   1.413       .  A
C3235      C3240   1.456       .  S
C3236      C3237   1.450       .  A
C3236      C3252   1.445       .  S
C3237      C4418   1.449       .  A
C3238      C4417   1.449   1_545  A
C3238      C3241   1.448       .  S
C3239      C3242   1.411       .  A
C3239      C4426   1.413   1_565  A
C3240      N3257   1.157       .  T
C3241      N3259   1.157       .  T
C3242      C3243   1.413       .  A
C3242      C3247   1.452       .  S
C3243      C3244   1.421       .  A
C3243      C3249   1.451       .  S
C3244      C4425   1.417   1_565  A
C3245      C4424   1.414       .  A
C3245      C3246   1.411       .  A
C3245      C3248   1.450       .  S
C3246      C4419   1.411       .  A
C3246      C3250   1.449       .  S
C3247      N3254   1.157       .  T
C3248      N3255   1.157       .  T
C3249      N3253   1.157       .  T
C3250      N3256   1.157       .  T
C3251      N3260   1.157       .  T
C3252      N3258   1.156       .  T
C3261      C3262   1.410       .  A
C3261      C3266   1.417       .  A
C3261      C3279   1.450       .  S
C3262      C3263   1.404       .  A
C3262      C3267   1.503       .  S
C3263      C3264   1.409       .  A
C3263      C3268   1.454       .  S
C3264      C3265   1.425       .  A
C3264      C3280   1.448       .  S
C3265      C3266   1.426       .  A
C3266      C3269   1.452       .  S
C3267      C3270   1.401       .  A
C3267      C3274   1.398       .  A
C3268      N3285   1.157       .  T
C3269      N3287   1.158       .  T
C3270      C3271   1.418       .  A
C3270      C3275   1.455       .  S
C3271      C3272   1.448       .  A
C3271      C3277   1.449       .  S
C3272      C3550   1.611       .  S
C3272      C3273   1.451       .  A
C3273      C3274   1.419       .  A
C3273      C3276   1.446       .  S
C3274      C3278   1.457       .  S
C3275      N3282   1.157       .  T
C3276      N3283   1.156       .  T
C3277      N3281   1.157   1_545  T
C3278      N3284   1.157       .  T
C3279      N3288   1.157       .  T
C3280      N3286   1.156       .  T
C3289      C3290   1.399       .  A
C3289      C3294   1.416       .  A
C3289      C3307   1.456       .  S
C3290      C3291   1.400       .  A
C3290      C3295   1.499       .  S
C3291      C3292   1.416       .  A
C3291      C3296   1.455       .  S
C3292      C3293   1.448       .  A
C3292      C3308   1.449       .  S
C3293      C3294   1.449       .  A
C3294      C3297   1.447       .  S
C3295      C3298   1.410       .  A
C3295      C3302   1.413       .  A
C3296      N3313   1.157       .  T
C3297      N3315   1.157       .  T
C3298      C3299   1.408       .  A
C3298      C3303   1.453       .  S
C3299      C3300   1.416       .  A
C3299      C3305   1.449       .  S
C3300      C3301   1.412       .  A
C3301      C3302   1.411       .  A
C3301      C3304   1.451       .  S
C3302      C3306   1.448       .  S
C3303      N3310   1.157       .  T
C3304      N3311   1.157       .  T
C3305      N3309   1.157       .  T
C3306      N3312   1.157       .  T
C3307      N3316   1.157       .  T
C3308      N3314   1.157       .  T
C3317      C3318   1.410       .  A
C3317      C3322   1.411       .  A
C3317      C3335   1.451       .  S
C3318      C3319   1.410       .  A
C3318      C3323   1.500       .  S
C3319      C3320   1.411       .  A
C3319      C3324   1.452       .  S
C3320      C3321   1.416       .  A
C3320      C3336   1.446       .  S
C3321      C3322   1.419       .  A
C3322      C3325   1.452       .  S
C3323      C3326   1.411       .  A
C3323      C3330   1.414       .  A
C3324      N3341   1.157       .  T
C3325      N3343   1.157       .  T
C3326      C3327   1.411       .  A
C3326      C3331   1.451       .  S
C3327      C3328   1.417       .  A
C3327      C3333   1.451       .  S
C3328      C3329   1.412       .  A
C3329      C3330   1.409       .  A
C3329      C3332   1.450       .  S
C3330      C3334   1.452       .  S
C3331      N3338   1.157       .  T
C3332      N3339   1.157       .  T
C3333      N3337   1.157       .  T
C3334      N3340   1.157       .  T
C3335      N3344   1.157       .  T
C3336      N3342   1.157       .  T
C3345      C3346   1.411       .  A
C3345      C3350   1.410       .  A
C3345      C3363   1.451       .  S
C3346      C3347   1.410       .  A
C3346      C3351   1.499       .  S
C3347      C3348   1.411       .  A
C3347      C3352   1.452       .  S
C3348      C3349   1.416       .  A
C3348      C3364   1.447       .  S
C3349      C3350   1.417       .  A
C3350      C3353   1.451       .  S
C3351      C3354   1.407       .  A
C3351      C3358   1.414       .  A
C3352      N3369   1.157       .  T
C3353      N3371   1.157       .  T
C3354      C3355   1.408       .  A
C3354      C3359   1.452       .  S
C3355      C3356   1.416       .  A
C3355      C3361   1.445       .  S
C3356      C3357   1.415       .  A
C3357      C3358   1.413       .  A
C3357      C3360   1.450       .  S
C3358      C3362   1.452       .  S
C3359      N3366   1.157       .  T
C3360      N3367   1.157       .  T
C3361      N3365   1.154       .  T
C3362      N3368   1.157       .  T
C3363      N3372   1.157       .  T
C3364      N3370   1.157       .  T
C3373      C3374   1.413       .  A
C3373      C3378   1.409       .  A
C3373      C3391   1.452       .  S
C3374      C3375   1.413       .  A
C3374      C3379   1.504       .  S
C3375      C3376   1.414       .  A
C3375      C3380   1.450       .  S
C3376      C3377   1.414       .  A
C3376      C3392   1.449       .  S
C3377      C3378   1.415       .  A
C3378      C3381   1.451       .  S
C3379      C3382   1.409       .  A
C3379      C3386   1.410       .  A
C3380      N3397   1.157       .  T
C3381      N3399   1.158       .  T
C3382      C3383   1.414       .  A
C3382      C3387   1.452       .  S
C3383      C3384   1.427       .  A
C3383      C3389   1.452       .  S
C3384      C3385   1.423       .  A
C3385      C3386   1.412       .  A
C3385      C3388   1.450       .  S
C3386      C3390   1.453       .  S
C3387      N3394   1.157       .  T
C3388      N3395   1.157       .  T
C3389      N3393   1.157       .  T
C3390      N3396   1.157       .  T
C3391      N3400   1.157       .  T
C3392      N3398   1.157       .  T
C3401      C3402   1.410       .  A
C3401      C3406   1.412       .  A
C3401      C3419   1.451       .  S
C3402      C3403   1.409       .  A
C3402      C3407   1.495       .  S
C3403      C3404   1.405       .  A
C3403      C3408   1.452       .  S
C3404      C3405   1.416       .  A
C3404      C3420   1.451       .  S
C3405      C3406   1.414       .  A
C3406      C3409   1.449       .  S
C3407      C3410   1.408       .  A
C3407      C3414   1.403       .  A
C3408      N3425   1.157       .  T
C3409      N3427   1.157       .  T
C3410      C3411   1.411       .  A
C3410      C3415   1.453       .  S
C3411      C3412   1.426       .  A
C3411      C3417   1.451       .  S
C3412      C3413   1.430       .  A
C3413      C3414   1.411       .  A
C3413      C3416   1.451       .  S
C3414      C3418   1.452       .  S
C3415      N3422   1.157       .  T
C3416      N3423   1.157       .  T
C3417      N3421   1.158       .  T
C3418      N3424   1.157       .  T
C3419      N3428   1.157       .  T
C3420      N3426   1.158       .  T
C3429      C3430   1.416   1_545  A
C3429      C3434   1.412       .  A
C3429      C3447   1.450       .  S
C3430      C4611   1.416       .  A
C3430      C3435   1.509       .  S
C3431      C4610   1.415       .  A
C3431      C3432   1.410       .  A
C3431      C3436   1.451       .  S
C3432      C4613   1.412       .  A
C3432      C3448   1.452       .  S
C3433      C4612   1.413       .  A
C3433      C3434   1.410   1_565  A
C3434      C3437   1.449       .  S
C3435      C4618   1.401       .  A
C3435      C3442   1.401   1_565  A
C3436      N3453   1.157       .  T
C3437      N3455   1.157       .  T
C3438      C4615   1.403       .  A
C3438      C3439   1.422       .  A
C3438      C3443   1.456       .  S
C3439      C4620   1.453       .  A
C3439      C3445   1.450       .  S
C3440      C3541   1.612       .  S
C3440      C4619   1.454       .  A
C3440      C3441   1.448   1_565  A
C3441      C3442   1.416       .  A
C3441      C3444   1.449       .  S
C3442      C3446   1.456       .  S
C3443      N3450   1.157       .  T
C3444      N3451   1.157       .  T
C3445      N3449   1.158       .  T
C3446      N3452   1.157       .  T
C3447      N3456   1.157       .  T
C3448      N3454   1.157       .  T
C3457      C4638   1.415       .  A
C3457      C3462   1.415       .  A
C3457      C3475   1.450       .  S
C3458      C4637   1.416       .  A
C3458      C3459   1.414   1_565  A
C3458      C3463   1.512       .  S
C3459      C3460   1.412       .  A
C3459      C3464   1.450       .  S
C3460      C3461   1.412   1_545  A
C3460      C3476   1.450       .  S
C3461      C4642   1.412       .  A
C3462      C4641   1.413       .  A
C3462      C3465   1.450       .  S
C3463      C3466   1.401       .  A
C3463      C4650   1.400       .  A
C3464      N3481   1.157       .  T
C3465      N3483   1.157       .  T
C3466      C3467   1.423       .  A
C3466      C3471   1.454       .  S
C3467      C3468   1.449       .  A
C3467      C3473   1.449       .  S
C3468      C3541   1.622       .  S
C3468      C4649   1.456       .  A
C3469      C4648   1.457       .  A
C3469      C3470   1.418       .  A
C3469      C3472   1.451       .  S
C3470      C4643   1.399       .  A
C3470      C3474   1.459       .  S
C3471      N3478   1.157       .  T
C3472      N3479   1.158       .  T
C3473      N3477   1.157       .  T
C3474      N3480   1.157       .  T
C3475      N3484   1.157       .  T
C3476      N3482   1.156       .  T
C3485      C3486   1.400       .  A
C3485      C3490   1.420       .  A
C3485      C3503   1.457       .  S
C3486      C3487   1.401       .  A
C3486      C3491   1.511       .  S
C3487      C3488   1.423       .  A
C3487      C3492   1.456       .  S
C3488      C3489   1.452       .  A
C3488      C3504   1.447       .  S
C3489      C3541   1.620   1_545  S
C3489      C3490   1.452       .  A
C3490      C3493   1.448       .  S
C3491      C3494   1.413       .  A
C3491      C3498   1.415       .  A
C3492      N3509   1.157       .  T
C3493      N3511   1.157       .  T
C3494      C3495   1.411       .  A
C3494      C3499   1.450       .  S
C3495      C3496   1.415       .  A
C3495      C3501   1.452       .  S
C3496      C3497   1.416       .  A
C3497      C3498   1.417       .  A
C3497      C3500   1.450       .  S
C3498      C3502   1.451       .  S
C3499      N3506   1.157       .  T
C3500      N3507   1.157       .  T
C3501      N3505   1.157       .  T
C3502      N3508   1.157       .  T
C3503      N3512   1.157       .  T
C3504      N3510   1.157       .  T
C3513      C3514   1.415       .  A
C3513      C3518   1.415       .  A
C3513      C3531   1.450       .  S
C3514      C3515   1.414       .  A
C3514      C3519   1.510       .  S
C3515      C3516   1.412       .  A
C3515      C3520   1.450       .  S
C3516      C3517   1.413       .  A
C3516      C3532   1.452       .  S
C3517      C3518   1.412       .  A
C3518      C3521   1.448       .  S
C3519      C3522   1.399       .  A
C3519      C3526   1.399       .  A
C3520      N3537   1.157       .  T
C3521      N3539   1.157       .  T
C3522      C3523   1.421       .  A
C3522      C3527   1.456       .  S
C3523      C3524   1.451       .  A
C3523      C3529   1.448       .  S
C3524      C3525   1.455       .  A
C3525      C3526   1.421       .  A
C3525      C3528   1.448       .  S
C3526      C3530   1.458       .  S
C3527      N3534   1.157       .  T
C3528      N3535   1.157       .  T
C3529      N3533   1.157       .  T
C3530      N3536   1.157       .  T
C3531      N3540   1.157       .  T
C3532      N3538   1.157       .  T
C3541      C4704   1.616       .  S
C3542      C3543   1.419   1_556  A
C3542      C3547   1.403       .  A
C3542      C4585   1.496       .  S
C3543      C3544   1.406       .  A
C3543      C4529   1.501       .  S
C3544      H3549   1.085       .  S
C3545      C3546   1.417   1_554  A
C3545      C4501   1.496       .  S
C3546      C4557   1.491       .  S
C3547      H3548   1.085       .  S
C3550      C4417   1.618   1_545  S
C3550      C4473   1.617   1_545  S
C3551      C4284   1.615       .  S
C3551      C4312   1.612       .  S
C3551      C4368   1.617       .  S
C3552      C3553   1.416   1_556  A
C3552      C3557   1.403   1_565  A
C3552      C4249   1.489       .  S
C3553      C3554   1.400       .  A
C3553      C4200   1.491       .  S
C3554      H3559   1.085       .  S
C3555      C3556   1.412   1_554  A
C3555      C4165   1.490       .  S
C3556      C4221   1.491       .  S
C3557      H3558   1.085       .  S
O3560     Zr3572   2.458       .  S
O3560      C3562   1.290       .  A
O3561     Zr3598   2.427       .  S
O3561      C3562   1.286       .  A
C3562      C4592   1.520       .  S
O3563     Zr3575   2.438       .  S
O3563      C3565   1.287       .  A
O3564     Zr3599   2.453       .  S
O3564      C3565   1.292       .  A
C3565      C4480   1.494       .  S
O3566     Zr3575   2.462       .  S
O3566      C3568   1.292       .  A
O3567     Zr3598   2.393       .  S
O3567      C3568   1.281       .  A
C3568      C4256   1.486       .  S
O3569     Zr3572   2.436       .  S
O3569      C3571   1.287       .  A
O3570     Zr3599   2.453       .  S
O3570      C3571   1.292       .  A
C3571      C4361   1.493       .  S
Zr3572     O3573   2.432       .  S
Zr3572     O3574   2.434       .  S
Zr3572     O3578   2.364       .  S
Zr3572     O3579   2.369       .  S
Zr3572     O3602   2.379       .  S
Zr3572     O3604   2.361       .  S
O3573      H3616   0.990       .  S
O3574      H3615   0.990       .  S
O3574      H3619   0.990       .  S
Zr3575     O3576   2.429       .  S
Zr3575     O3577   2.435       .  S
Zr3575     O3579   2.382       .  S
Zr3575     O3578   2.366       .  S
Zr3575     O3603   2.367       .  S
Zr3575     O3605   2.374       .  S
O3576      H3617   0.989       .  S
O3576      H3620   0.990       .  S
O3577      H3610   0.990       .  S
O3578     Zr3598   2.373       .  S
O3579     Zr3599   2.398       .  S
O3579      H3606   0.963       .  S
O3580     Zr3592   2.438       .  S
O3580      C3582   1.286       .  A
O3581     Zr3599   2.455       .  S
O3581      C3582   1.292       .  A
C3582      C4445   1.523       .  S
O3583     Zr3595   2.458       .  S
O3583      C3585   1.291       .  A
O3584     Zr3598   2.418       .  S
O3584      C3585   1.286       .  A
C3585      C4564   1.508       .  S
O3586     Zr3595   2.448       .  S
O3586      C3588   1.289       .  A
O3587     Zr3599   2.451       .  S
O3587      C3588   1.292       .  A
C3588      C4333   1.495       .  S
O3589     Zr3592   2.455       .  S
O3589      C3591   1.290       .  A
O3590     Zr3598   2.408       .  S
O3590      C3591   1.283       .  A
C3591      C4228   1.485       .  S
Zr3592     O3593   2.434       .  S
Zr3592     O3594   2.434       .  S
Zr3592     O3600   2.376       .  S
Zr3592     O3601   2.362       .  S
Zr3592     O3604   2.375       .  S
Zr3592     O3602   2.379       .  S
O3593      H3613   0.990       .  S
O3593      H3618   0.989       .  S
O3594      H3614   0.990       .  S
Zr3595     O3596   2.434       .  S
Zr3595     O3597   2.433       .  S
Zr3595     O3601   2.374       .  S
Zr3595     O3600   2.375       .  S
Zr3595     O3605   2.377       .  S
Zr3595     O3603   2.366       .  S
O3596      H3612   0.990       .  S
O3597      H3611   0.989       .  S
O3597      H3621   0.990       .  S
Zr3598     O3601   2.375       .  S
Zr3598     O3603   2.382       .  S
Zr3598     O3604   2.378       .  S
Zr3599     O3600   2.393       .  S
Zr3599     O3602   2.390       .  S
Zr3599     O3605   2.392       .  S
O3600      H3608   0.971       .  S
O3603      H3607   0.972       .  S
O3604      H3609   0.971       .  S
O3622     Zr3634   2.451       .  S
O3622      C3624   1.291       .  A
O3623     Zr3660   2.439       .  S
O3623      C3624   1.289       .  A
C3624      C4137   1.496       .  S
O3625     Zr3637   2.472       .  S
O3625      C3627   1.294       .  A
O3626     Zr3661   2.416       .  S
O3626      C3627   1.285       .  A
C3627      C4193   1.513       .  S
O3628     Zr3637   2.438       .  S
O3628      C3630   1.287       .  A
O3629     Zr3660   2.429       .  S
O3629      C3630   1.287       .  A
C3630      C4697   1.477       .  S
O3631     Zr3634   2.465       .  S
O3631      C3633   1.292       .  A
O3632     Zr3661   2.425       .  S
O3632      C3633   1.286       .  A
C3633      C4536   1.499       .  S
Zr3634     O3635   2.434       .  S
Zr3634     O3636   2.427       .  S
Zr3634     O3640   2.369       .  S
Zr3634     O3641   2.372       .  S
Zr3634     O3664   2.367       .  S
Zr3634     O3666   2.385       .  S
O3635      H3678   0.990       .  S
O3636      H3677   0.989       .  S
O3636      H3681   0.989       .  S
Zr3637     O3638   2.432       .  S
Zr3637     O3639   2.436       .  S
Zr3637     O3641   2.366       .  S
Zr3637     O3640   2.375       .  S
Zr3637     O3665   2.376       .  S
Zr3637     O3667   2.365       .  S
O3638      H3679   0.990       .  S
O3638      H3682   0.990       .  S
O3639      H3672   0.990       .  S
O3640     Zr3660   2.384       .  S
O3641     Zr3661   2.374       .  S
O3641      H3668   0.967       .  S
O3642     Zr3654   2.456       .  S
O3642      C3644   1.290       .  A
O3643     Zr3661   2.406       .  S
O3643      C3644   1.282       .  A
C3644      C4172   1.510       .  S
O3645     Zr3657   2.446       .  S
O3645      C3647   1.289       .  A
O3646     Zr3660   2.451       .  S
O3646      C3647   1.291       .  A
C3647      C4109   1.493       .  S
O3648     Zr3657   2.460       .  S
O3648      C3650   1.291       .  A
O3649     Zr3661   2.408       .  S
O3649      C3650   1.283       .  A
C3650      C4508   1.488       .  S
O3651     Zr3654   2.457       .  S
O3651      C3653   1.291       .  A
O3652     Zr3660   2.432       .  S
O3652      C3653   1.287       .  A
C3653      C4676   1.493       .  S
Zr3654     O3655   2.436       .  S
Zr3654     O3656   2.434       .  S
Zr3654     O3662   2.373       .  S
Zr3654     O3663   2.377       .  S
Zr3654     O3666   2.372       .  S
Zr3654     O3664   2.376       .  S
O3655      H3675   0.990       .  S
O3655      H3680   0.990       .  S
O3656      H3676   0.990       .  S
Zr3657     O3658   2.434       .  S
Zr3657     O3659   2.433       .  S
Zr3657     O3663   2.378       .  S
Zr3657     O3662   2.375       .  S
Zr3657     O3667   2.371       .  S
Zr3657     O3665   2.379       .  S
O3658      H3674   0.990       .  S
O3659      H3673   0.990       .  S
O3659      H3683   0.990       .  S
Zr3660     O3663   2.385       .  S
Zr3660     O3665   2.393       .  S
Zr3660     O3666   2.394       .  S
Zr3661     O3662   2.386       .  S
Zr3661     O3664   2.376       .  S
Zr3661     O3667   2.376       .  S
O3662      H3670   0.965       .  S
O3665      H3669   0.969       .  S
O3666      H3671   0.963       .  S
O3684     Zr3696   2.452       .  S
O3684      C3686   1.290       .  A
O3685      C3686   1.288       .  A
C3686      C4305   1.485       .  S
O3687     Zr3699   2.463       .  S
O3687      C3689   1.291       .  A
O3688      C3689   1.287       .  A
O3690     Zr3699   2.421       .  S
O3690      C3692   1.284       .  A
O3691      C3692   1.292       .  A
C3692      C4424   1.489       .  S
O3693     Zr3696   2.471       .  S
O3693      C3695   1.294       .  A
O3694      C3695   1.286       .  A
C3695      C4088   1.501       .  S
Zr3696     O3698   2.436       .  S
Zr3696     O3726   2.372       .  S
Zr3696     O3728   2.375       .  S
O3697      H3740   0.990       .  S
O3698      H3739   0.990       .  S
O3698      H3743   0.990       .  S
Zr3699     O3701   2.434       .  S
Zr3699     O3727   2.383       .  S
Zr3699     O3729   2.362       .  S
O3700      H3741   0.990       .  S
O3700      H3744   0.990       .  S
O3701      H3734   0.990       .  S
O3703      H3730   0.962       .  S
O3704     Zr3716   2.457       .  S
O3704      C3706   1.291       .  A
O3705     Zr3723   2.422       .  S
O3705      C3706   1.286       .  A
C3706      C4025   1.495       .  S
O3707     Zr3719   2.453   1_655  S
O3707      C3709   1.291       .  A
O3708     Zr3722   2.441       .  S
O3708      C3709   1.290       .  A
C3709      C4277   1.504       .  S
O3710     Zr3719   2.455       .  S
O3710      C3712   1.290       .  A
O3711     Zr3723   2.419       .  S
O3711      C3712   1.286   1_655  A
C3712      C4060   1.502       .  S
O3713     Zr3716   2.430       .  S
O3713      C3715   1.286       .  A
O3714     Zr3722   2.450       .  S
O3714      C3715   1.292       .  A
C3715      C4396   1.496       .  S
Zr3716     O3717   2.435       .  S
Zr3716     O3724   2.368       .  S
Zr3716     O3725   2.374       .  S
O3717      H3737   0.990       .  S
O3717      H3742   0.990       .  S
O3718      H3738   0.990       .  S
Zr3719     O3720   2.432   1_455  S
Zr3719     O3725   2.373   1_455  S
Zr3719     O3724   2.372   1_455  S
O3720      H3736   0.990       .  S
O3721      H3735   0.990       .  S
O3721      H3745   0.991       .  S
Zr3722     O3725   2.382       .  S
Zr3723     O3724   2.378       .  S
O3724      H3732   0.961       .  S
O3727      H3731   0.965       .  S
O3728      H3733   0.967       .  S
O3746     Zr3758   2.428       .  S
O3746      C3748   1.285       .  A
O3747      C3748   1.290       .  A
C3748      C4641   1.484       .  S
O3749     Zr3761   2.444       .  S
O3749      C3751   1.288       .  A
O3750      C3751   1.284   1_655  A
C3751      C3913   1.491       .  S
O3752     Zr3761   2.447       .  S
O3752      C3754   1.289   1_455  A
O3753      C3754   1.288       .  A
C3754      C3829   1.498       .  S
O3755     Zr3758   2.458       .  S
O3755      C3757   1.291       .  A
O3756      C3757   1.286       .  A
Zr3758     O3760   2.435       .  S
Zr3758     O3788   2.368       .  S
Zr3758     O3790   2.377       .  S
O3759      H3802   0.990       .  S
O3760      H3801   0.989       .  S
O3760      H3805   0.990       .  S
Zr3761     O3763   2.433   1_455  S
Zr3761     O3789   2.369   1_455  S
Zr3761     O3791   2.375   1_455  S
O3762      H3803   0.990       .  S
O3762      H3806   0.990       .  S
O3763      H3796   0.990       .  S
O3765      H3792   0.961       .  S
O3766     Zr3778   2.453       .  S
O3766      C3768   1.290       .  A
O3767     Zr3785   2.400       .  S
O3767      C3768   1.282       .  A
C3768      C3885   1.487       .  S
O3769     Zr3781   2.429       .  S
O3769      C3771   1.285       .  A
O3770     Zr3784   2.449       .  S
O3770      C3771   1.291       .  A
C3771      C4613   1.484       .  S
O3772     Zr3781   2.460       .  S
O3772      C3774   1.291       .  A
O3773     Zr3785   2.417       .  S
O3773      C3774   1.285       .  A
C3774      C3976   1.510       .  S
O3775     Zr3778   2.455       .  S
O3775      C3777   1.291   1_655  A
O3776     Zr3784   2.435   1_455  S
O3776      C3777   1.288       .  A
C3777      C3857   1.502       .  S
Zr3778     O3779   2.434       .  S
Zr3778     O3786   2.372       .  S
Zr3778     O3787   2.369       .  S
O3779      H3799   0.990       .  S
O3779      H3804   0.990       .  S
O3780      H3800   0.990       .  S
Zr3781     O3782   2.434       .  S
Zr3781     O3787   2.383       .  S
Zr3781     O3786   2.364       .  S
O3782      H3798   0.990       .  S
O3783      H3797   0.990       .  S
O3783      H3807   0.991       .  S
Zr3784     O3787   2.385       .  S
Zr3785     O3786   2.376       .  S
O3786      H3794   0.967       .  S
O3789      H3793   0.967       .  S
O3790      H3795   0.967       .  S
C3808      C3809   1.415       .  A
C3808      C3813   1.400       .  A
C3808      C4081   1.495       .  S
C3809      C3810   1.400       .  A
C3809      C3920   1.484       .  S
C3810      C3811   1.397       .  A
C3810      H3815   1.086       .  S
C3811      C3812   1.415       .  A
C3811      C3892   1.492       .  S
C3812      C3813   1.404       .  A
C3812      C4053   1.487       .  S
C3813      H3814   1.085       .  S
C3816      C3817   1.417       .  A
C3816      C3821   1.407       .  A
C3816      C4032   1.494   1_565  S
C3817      C3818   1.399       .  A
C3817      C3969   1.496       .  S
C3818      C3819   1.402       .  A
C3818      H3823   1.086       .  S
C3819      C3820   1.417       .  A
C3819      C3941   1.488       .  S
C3820      C3821   1.404       .  A
C3820      C3997   1.502       .  S
C3821      H3822   1.085       .  S
C3824      C3836   1.613       .  S
C3824      C3864   1.615       .  S
C3824      C4144   1.619       .  S
C3825      C3826   1.410       .  A
C3825      C3830   1.413       .  A
C3826      C3827   1.411   1_655  A
C3826      C3831   1.502       .  S
C3827      C3828   1.412       .  A
C3827      C3832   1.451       .  S
C3828      C3829   1.418   1_455  A
C3828      C3844   1.451       .  S
C3829      C3830   1.420       .  A
C3831      C3838   1.404       .  A
C3832      N3849   1.157       .  T
C3833      N3851   1.157       .  T
C3834      C3835   1.413       .  A
C3834      C3839   1.456       .  S
C3835      C3841   1.451       .  S
C3836      C3837   1.445       .  A
C3837      C3838   1.421       .  A
C3837      C3840   1.451       .  S
C3838      C3842   1.453       .  S
C3839      N3846   1.157       .  T
C3840      N3847   1.157       .  T
C3841      N3845   1.158       .  T
C3842      N3848   1.157       .  T
C3843      N3852   1.157       .  T
C3844      N3850   1.157       .  T
C3853      C3854   1.414       .  A
C3853      C3858   1.411       .  A
C3853      C3871   1.453       .  S
C3854      C3855   1.416   1_455  A
C3854      C3859   1.513   1_455  S
C3855      C3856   1.416       .  A
C3855      C3860   1.450       .  S
C3856      C3857   1.418   1_655  A
C3856      C3872   1.450       .  S
C3857      C3858   1.418       .  A
C3858      C3861   1.450       .  S
C3859      C3866   1.404       .  A
C3861      N3879   1.157       .  T
C3862      C3863   1.417       .  A
C3862      C3867   1.453       .  S
C3863      C3869   1.448       .  S
C3864      C3865   1.447       .  A
C3865      C3866   1.414       .  A
C3865      C3868   1.445       .  S
C3866      C3870   1.456       .  S
C3867      N3874   1.157       .  T
C3868      N3875   1.157   1_655  T
C3869      N3873   1.157       .  T
C3870      N3876   1.157       .  T
C3871      N3880   1.157       .  T
C3872      N3878   1.158       .  T
C3881      C3886   1.414       .  A
C3881      C3899   1.451       .  S
C3882      C3883   1.407   1_455  A
C3882      C3887   1.491       .  S
C3883      C3884   1.406       .  A
C3883      C3888   1.452       .  S
C3884      C3885   1.419       .  A
C3884      C3900   1.451       .  S
C3886      C3889   1.449       .  S
C3887      C3890   1.409   1_455  A
C3888      N3905   1.157       .  T
C3889      N3907   1.157       .  T
C3890      C3891   1.404       .  A
C3890      C3895   1.453       .  S
C3891      C3897   1.454       .  S
C3892      C3893   1.415       .  A
C3893      C3894   1.412       .  A
C3893      C3896   1.448       .  S
C3894      C3898   1.451       .  S
C3895      N3902   1.157       .  T
C3896      N3903   1.157       .  T
C3897      N3901   1.157       .  T
C3898      N3904   1.157       .  T
C3899      N3908   1.157       .  T
C3900      N3906   1.157       .  T
C3909      C3910   1.406       .  A
C3909      C3914   1.405       .  A
C3909      C3927   1.453       .  S
C3910      C3915   1.488       .  S
C3911      C3912   1.408       .  A
C3911      C3916   1.452       .  S
C3912      C3913   1.417   1_655  A
C3912      C3928   1.450       .  S
C3914      C3917   1.450       .  S
C3915      C3922   1.407       .  A
C3916      N3933   1.157       .  T
C3917      N3935   1.156       .  T
C3918      C3919   1.411       .  A
C3918      C3923   1.452       .  S
C3919      C3925   1.449       .  S
C3920      C3921   1.419       .  A
C3921      C3922   1.403       .  A
C3921      C3924   1.454       .  S
C3922      C3926   1.453       .  S
C3923      N3930   1.157       .  T
C3924      N3931   1.157       .  T
C3925      N3929   1.157       .  T
C3926      N3932   1.157       .  T
C3927      N3936   1.157       .  T
C3928      N3934   1.157       .  T
C3937      C3938   1.410       .  A
C3937      C3942   1.411       .  A
C3937      C3955   1.451       .  S
C3938      C3943   1.494       .  S
C3939      C3940   1.408       .  A
C3939      C3944   1.451       .  S
C3940      C3956   1.453       .  S
C3941      C3942   1.413       .  A
C3942      C3945   1.448       .  S
C3943      C3950   1.408       .  A
C3944      N3961   1.157       .  T
C3945      N3963   1.157       .  T
C3946      C3947   1.412       .  A
C3946      C3951   1.452       .  S
C3947      C3953   1.449       .  S
C3948      C3949   1.423       .  A
C3949      C3950   1.413       .  A
C3949      C3952   1.450       .  S
C3950      C3954   1.452       .  S
C3951      N3958   1.157       .  T
C3952      N3959   1.157       .  T
C3953      N3957   1.156       .  T
C3954      N3960   1.157       .  T
C3955      N3964   1.157       .  T
C3956      N3962   1.157       .  T
C3965      C3966   1.409       .  A
C3965      C3970   1.409       .  A
C3965      C3983   1.451       .  S
C3967      C3968   1.413       .  A
C3967      C3972   1.451       .  S
C3968      C3984   1.449       .  S
C3969      C3970   1.419       .  A
C3970      C3973   1.452       .  S
C3971      C3978   1.405       .  A
C3972      N3989   1.157       .  T
C3973      N3991   1.157       .  T
C3974      C3979   1.451       .  S
C3975      C3976   1.424       .  A
C3975      C3981   1.451       .  S
C3976      C3977   1.428       .  A
C3977      C3978   1.414       .  A
C3977      C3980   1.451       .  S
C3978      C3982   1.452       .  S
C3979      N3986   1.157       .  T
C3980      N3987   1.157       .  T
C3982      N3988   1.157       .  T
C3983      N3992   1.157       .  T
C3984      N3990   1.157       .  T
C3993      C3998   1.416       .  A
C3993      C4011   1.450       .  S
C3994      C3995   1.408       .  A
C3994      C3999   1.502       .  S
C3995      C3996   1.412       .  A
C3995      C4000   1.450       .  S
C3996      C3997   1.420       .  A
C3996      C4012   1.452       .  S
C3998      C4001   1.448       .  S
C3999      C4002   1.407       .  A
C4000      N4017   1.157       .  T
C4001      N4019   1.157       .  T
C4002      C4003   1.415       .  A
C4002      C4007   1.451       .  S
C4003      C4004   1.425       .  A
C4003      C4009   1.450       .  S
C4005      C4006   1.415       .  A
C4005      C4008   1.450       .  S
C4006      C4010   1.451       .  S
C4007      N4014   1.157       .  T
C4008      N4015   1.157       .  T
C4009      N4013   1.157       .  T
C4010      N4016   1.157       .  T
C4011      N4020   1.157       .  T
C4012      N4018   1.157       .  T
C4021      C4026   1.410       .  A
C4021      C4039   1.451       .  S
C4022      C4023   1.410       .  A
C4023      C4024   1.412       .  A
C4023      C4028   1.451       .  S
C4024      C4025   1.418       .  A
C4024      C4040   1.450       .  S
C4026      C4029   1.451       .  S
C4027      C4030   1.410       .  A
C4027      C4034   1.413   1_545  A
C4028      N4045   1.157       .  T
C4029      N4047   1.157       .  T
C4030      C4031   1.409       .  A
C4031      C4032   1.418       .  A
C4031      C4037   1.453       .  S
C4032      C4033   1.413   1_545  A
C4033      C4034   1.413       .  A
C4033      C4036   1.448       .  S
C4034      C4038   1.451       .  S
C4035      N4042   1.157       .  T
C4036      N4043   1.157       .  T
C4037      N4041   1.157       .  T
C4038      N4044   1.157       .  T
C4039      N4048   1.157       .  T
C4040      N4046   1.156       .  T
C4049      C4054   1.406       .  A
C4049      C4067   1.452       .  S
C4050      C4051   1.410   1_455  A
C4050      C4055   1.492       .  S
C4051      C4052   1.411       .  A
C4051      C4056   1.451       .  S
C4052      C4068   1.449       .  S
C4053      C4054   1.420       .  A
C4054      C4057   1.453       .  S
C4055      C4062   1.402       .  A
C4056      N4073   1.157       .  T
C4057      N4075   1.158       .  T
C4058      C4059   1.408       .  A
C4058      C4063   1.453       .  S
C4059      C4065   1.450       .  S
C4060      C4061   1.424       .  A
C4061      C4062   1.409       .  A
C4061      C4064   1.447       .  S
C4062      C4066   1.452       .  S
C4063      N4070   1.157       .  T
C4064      N4071   1.155       .  T
C4065      N4069   1.157       .  T
C4066      N4072   1.157       .  T
C4067      N4076   1.157       .  T
C4068      N4074   1.157       .  T
C4077      C4082   1.414       .  A
C4077      C4095   1.451       .  S
C4078      C4079   1.411       .  A
C4078      C4083   1.502       .  S
C4079      C4080   1.410       .  A
C4079      C4084   1.451       .  S
C4080      C4096   1.453       .  S
C4081      C4082   1.414       .  A
C4082      C4085   1.448       .  S
C4083      C4090   1.413   1_655  A
C4084      N4101   1.157       .  T
C4085      N4103   1.157       .  T
C4086      C4087   1.410       .  A
C4086      C4091   1.451       .  S
C4087      C4093   1.447       .  S
C4088      C4089   1.419   1_655  A
C4089      C4090   1.415       .  A
C4089      C4092   1.450       .  S
C4090      C4094   1.452       .  S
C4091      N4098   1.157       .  T
C4092      N4099   1.157       .  T
C4093      N4097   1.155       .  T
C4094      N4100   1.157       .  T
C4095      N4104   1.157       .  T
C4096      N4102   1.158       .  T
C4105      C4106   1.415       .  A
C4105      C4110   1.416       .  A
C4105      C4123   1.450       .  S
C4106      C4107   1.415       .  A
C4106      C4111   1.513       .  S
C4107      C4108   1.413       .  A
C4107      C4112   1.451       .  S
C4108      C4109   1.414       .  A
C4108      C4124   1.451       .  S
C4109      C4110   1.413       .  A
C4110      C4113   1.447       .  S
C4111      C4114   1.402       .  A
C4111      C4118   1.402       .  A
C4112      N4129   1.157       .  T
C4113      N4131   1.156       .  T
C4114      C4115   1.420       .  A
C4114      C4119   1.453       .  S
C4115      C4116   1.450       .  A
C4115      C4121   1.452       .  S
C4116      C4117   1.449       .  A
C4117      C4118   1.421       .  A
C4117      C4120   1.445       .  S
C4118      C4122   1.457       .  S
C4119      N4126   1.157       .  T
C4121      N4125   1.157       .  T
C4122      N4128   1.157       .  T
C4123      N4132   1.157       .  T
C4124      N4130   1.157       .  T
C4133      C4134   1.415       .  A
C4133      C4138   1.417       .  A
C4133      C4151   1.450       .  S
C4134      C4135   1.411       .  A
C4134      C4139   1.508       .  S
C4135      C4136   1.409       .  A
C4135      C4140   1.451       .  S
C4136      C4137   1.415       .  A
C4136      C4152   1.450       .  S
C4137      C4138   1.417       .  A
C4138      C4141   1.450       .  S
C4139      C4142   1.400       .  A
C4139      C4146   1.400       .  A
C4140      N4157   1.157       .  T
C4141      N4159   1.157       .  T
C4142      C4143   1.420       .  A
C4142      C4147   1.456       .  S
C4143      C4144   1.454       .  A
C4143      C4149   1.449       .  S
C4144      C4145   1.451       .  A
C4145      C4146   1.421       .  A
C4145      C4148   1.448       .  S
C4146      C4150   1.456       .  S
C4147      N4154   1.157       .  T
C4148      N4155   1.157       .  T
C4149      N4153   1.158       .  T
C4150      N4156   1.157       .  T
C4151      N4160   1.157       .  T
C4152      N4158   1.157       .  T
C4161      C4162   1.409       .  A
C4161      C4166   1.412       .  A
C4161      C4179   1.451       .  S
C4162      C4163   1.409       .  A
C4162      C4167   1.493       .  S
C4163      C4164   1.405       .  A
C4163      C4168   1.452       .  S
C4164      C4165   1.415       .  A
C4164      C4180   1.451       .  S
C4165      C4166   1.415       .  A
C4166      C4169   1.448       .  S
C4167      C4170   1.404       .  A
C4167      C4174   1.407       .  A
C4168      N4185   1.157       .  T
C4169      N4187   1.157       .  T
C4170      C4171   1.412       .  A
C4170      C4175   1.452       .  S
C4171      C4172   1.431       .  A
C4171      C4177   1.453       .  S
C4172      C4173   1.426       .  A
C4173      C4174   1.409       .  A
C4173      C4176   1.451       .  S
C4174      C4178   1.453       .  S
C4175      N4182   1.157       .  T
C4176      N4183   1.157       .  T
C4177      N4181   1.158       .  T
C4178      N4184   1.157       .  T
C4179      N4188   1.157       .  T
C4180      N4186   1.157       .  T
C4189      C4190   1.406       .  A
C4189      C4194   1.415       .  A
C4189      C4207   1.452       .  S
C4190      C4191   1.409       .  A
C4190      C4195   1.501       .  S
C4191      C4192   1.413       .  A
C4191      C4196   1.453       .  S
C4192      C4193   1.423       .  A
C4192      C4208   1.448       .  S
C4193      C4194   1.429       .  A
C4194      C4197   1.450       .  S
C4195      C4198   1.411       .  A
C4195      C4202   1.412       .  A
C4196      N4213   1.157       .  T
C4197      N4215   1.157       .  T
C4198      C4199   1.413       .  A
C4198      C4203   1.451       .  S
C4199      C4200   1.415       .  A
C4199      C4205   1.449       .  S
C4200      C4201   1.414       .  A
C4201      C4202   1.409       .  A
C4201      C4204   1.451       .  S
C4202      C4206   1.452       .  S
C4203      N4210   1.157       .  T
C4204      N4211   1.157       .  T
C4205      N4209   1.157       .  T
C4206      N4212   1.157       .  T
C4207      N4216   1.157       .  T
C4208      N4214   1.157       .  T
C4217      C4218   1.412       .  A
C4217      C4222   1.409       .  A
C4217      C4235   1.451       .  S
C4218      C4219   1.409       .  A
C4218      C4223   1.497       .  S
C4219      C4220   1.409       .  A
C4219      C4224   1.452       .  S
C4220      C4221   1.416       .  A
C4220      C4236   1.448       .  S
C4221      C4222   1.415       .  A
C4222      C4225   1.451       .  S
C4223      C4226   1.415       .  A
C4223      C4230   1.408       .  A
C4224      N4241   1.157       .  T
C4225      N4243   1.157       .  T
C4226      C4227   1.409       .  A
C4226      C4231   1.451       .  S
C4227      C4228   1.412       .  A
C4227      C4233   1.451       .  S
C4228      C4229   1.416       .  A
C4229      C4230   1.408       .  A
C4229      C4232   1.448       .  S
C4230      C4234   1.451       .  S
C4231      N4238   1.157       .  T
C4232      N4239   1.156       .  T
C4233      N4237   1.157       .  T
C4234      N4240   1.157       .  T
C4235      N4244   1.157       .  T
C4245      C4246   1.408       .  A
C4245      C4250   1.407       .  A
C4245      C4263   1.452       .  S
C4246      C4247   1.408       .  A
C4246      C4251   1.490       .  S
C4247      C4248   1.409       .  A
C4247      C4252   1.452       .  S
C4248      C4249   1.415       .  A
C4248      C4264   1.447       .  S
C4249      C4250   1.417       .  A
C4250      C4253   1.451       .  S
C4251      C4254   1.411       .  A
C4251      C4258   1.405       .  A
C4252      N4269   1.157       .  T
C4253      N4271   1.157       .  T
C4254      C4255   1.409       .  A
C4254      C4259   1.451       .  S
C4255      C4256   1.414       .  A
C4255      C4261   1.450       .  S
C4256      C4257   1.419       .  A
C4257      C4258   1.407       .  A
C4257      C4260   1.448       .  S
C4258      C4262   1.452       .  S
C4259      N4266   1.157       .  T
C4260      N4267   1.156       .  T
C4261      N4265   1.157       .  T
C4262      N4268   1.157       .  T
C4263      N4272   1.157       .  T
C4264      N4270   1.157       .  T
C4273      C4274   1.413   1_455  A
C4273      C4278   1.414       .  A
C4273      C4291   1.452       .  S
C4274      C4275   1.414       .  A
C4274      C4279   1.513       .  S
C4275      C4276   1.416       .  A
C4275      C4280   1.452       .  S
C4276      C4277   1.419       .  A
C4276      C4292   1.450       .  S
C4277      C4278   1.419   1_655  A
C4278      C4281   1.450       .  S
C4279      C4282   1.403       .  A
C4280      N4297   1.157       .  T
C4281      N4299   1.157       .  T
C4282      C4283   1.419       .  A
C4282      C4287   1.456       .  S
C4283      C4284   1.450       .  A
C4283      C4289   1.449       .  S
C4285      C4286   1.419       .  A
C4285      C4288   1.445       .  S
C4286      C4290   1.456       .  S
C4287      N4294   1.157       .  T
C4288      N4295   1.156       .  T
C4289      N4293   1.157       .  T
C4290      N4296   1.157       .  T
C4292      N4298   1.157       .  T
C4301      C4306   1.414       .  A
C4301      C4319   1.451       .  S
C4302      C4303   1.414       .  A
C4302      C4307   1.505       .  S
C4303      C4304   1.413       .  A
C4303      C4308   1.450       .  S
C4304      C4305   1.412       .  A
C4304      C4320   1.451       .  S
C4306      C4309   1.449       .  S
C4307      C4314   1.399       .  A
C4308      N4325   1.157       .  T
C4309      N4327   1.157       .  T
C4310      C4311   1.422       .  A
C4310      C4315   1.454       .  S
C4311      C4317   1.448       .  S
C4312      C4313   1.452       .  A
C4313      C4314   1.416       .  A
C4313      C4316   1.448   1_655  S
C4314      C4318   1.457       .  S
C4315      N4322   1.157       .  T
C4316      N4323   1.157       .  T
C4317      N4321   1.157       .  T
C4318      N4324   1.157       .  T
C4319      N4328   1.157       .  T
C4320      N4326   1.157       .  T
C4329      C4330   1.413       .  A
C4329      C4334   1.414       .  A
C4329      C4347   1.451       .  S
C4330      C4331   1.417       .  A
C4330      C4335   1.514       .  S
C4331      C4332   1.417       .  A
C4331      C4336   1.448       .  S
C4332      C4333   1.413       .  A
C4332      C4348   1.450       .  S
C4333      C4334   1.415       .  A
C4334      C4337   1.450       .  S
C4335      C4338   1.401       .  A
C4335      C4342   1.403       .  A
C4336      N4353   1.157       .  T
C4337      N4355   1.157       .  T
C4338      C4339   1.424       .  A
C4338      C4343   1.453       .  S
C4339      C4340   1.451       .  A
C4339      C4345   1.447       .  S
C4340      C4341   1.450       .  A
C4341      C4342   1.419       .  A
C4341      C4344   1.448       .  S
C4342      C4346   1.455       .  S
C4343      N4350   1.157       .  T
C4345      N4349   1.157       .  T
C4346      N4352   1.157       .  T
C4347      N4356   1.157       .  T
C4348      N4354   1.157       .  T
C4357      C4358   1.413       .  A
C4357      C4362   1.410       .  A
C4357      C4375   1.452       .  S
C4358      C4359   1.416       .  A
C4358      C4363   1.511       .  S
C4359      C4360   1.417       .  A
C4359      C4364   1.450       .  S
C4360      C4361   1.414       .  A
C4360      C4376   1.449       .  S
C4361      C4362   1.415       .  A
C4362      C4365   1.450       .  S
C4363      C4366   1.401       .  A
C4363      C4370   1.401       .  A
C4364      N4381   1.157       .  T
C4365      N4383   1.156       .  T
C4366      C4367   1.420       .  A
C4366      C4371   1.455       .  S
C4367      C4368   1.449       .  A
C4367      C4373   1.449       .  S
C4368      C4369   1.455       .  A
C4369      C4370   1.420       .  A
C4369      C4372   1.449       .  S
C4370      C4374   1.458       .  S
C4371      N4378   1.157       .  T
C4372      N4379   1.157       .  T
C4373      N4377   1.157       .  T
C4374      N4380   1.157       .  T
C4375      N4384   1.157       .  T
C4376      N4382   1.157       .  T
C4385      C4386   1.399       .  A
C4385      C4390   1.413       .  A
C4385      C4403   1.457       .  S
C4386      C4391   1.501       .  S
C4387      C4388   1.423       .  A
C4387      C4392   1.453       .  S
C4388      C4404   1.449       .  S
C4389      C4390   1.450       .  A
C4390      C4393   1.450       .  S
C4391      C4398   1.411       .  A
C4392      N4409   1.157       .  T
C4393      N4411   1.158       .  T
C4394      C4395   1.417       .  A
C4394      C4399   1.449       .  S
C4395      C4401   1.448       .  S
C4396      C4397   1.419       .  A
C4397      C4398   1.411       .  A
C4397      C4400   1.451       .  S
C4398      C4402   1.453       .  S
C4399      N4406   1.157       .  T
C4400      N4407   1.157       .  T
C4401      N4405   1.157       .  T
C4402      N4408   1.157       .  T
C4403      N4412   1.157       .  T
C4404      N4410   1.157       .  T
C4413      C4414   1.399       .  A
C4413      C4418   1.417       .  A
C4413      C4431   1.455       .  S
C4414      C4419   1.497       .  S
C4415      C4416   1.418       .  A
C4415      C4420   1.457       .  S
C4416      C4417   1.451       .  A
C4416      C4432   1.443       .  S
C4418      C4421   1.448       .  S
C4419      C4422   1.409       .  A
C4420      N4437   1.157       .  T
C4421      N4439   1.157       .  T
C4422      C4423   1.408       .  A
C4422      C4427   1.453       .  S
C4423      C4424   1.419       .  A
C4423      C4429   1.451       .  S
C4425      C4426   1.417       .  A
C4425      C4428   1.450       .  S
C4426      C4430   1.448       .  S
C4427      N4434   1.157       .  T
C4428      N4435   1.157       .  T
C4429      N4433   1.157       .  T
C4430      N4436   1.157       .  T
C4431      N4440   1.157       .  T
C4432      N4438   1.156       .  T
C4441      C4442   1.409       .  A
C4441      C4446   1.417       .  A
C4441      C4459   1.451       .  S
C4442      C4443   1.406       .  A
C4442      C4447   1.507       .  S
C4443      C4444   1.413       .  A
C4443      C4448   1.455       .  S
C4444      C4445   1.433       .  A
C4444      C4460   1.451       .  S
C4445      C4446   1.428       .  A
C4446      C4449   1.451       .  S
C4447      C4450   1.400       .  A
C4447      C4454   1.399       .  A
C4448      N4465   1.157       .  T
C4449      N4467   1.158       .  T
C4450      C4451   1.417       .  A
C4450      C4455   1.455       .  S
C4451      C4452   1.449       .  A
C4451      C4457   1.449       .  S
C4452      C4453   1.451       .  A
C4453      C4454   1.421       .  A
C4453      C4456   1.445       .  S
C4454      C4458   1.456       .  S
C4455      N4462   1.157       .  T
C4456      N4463   1.156       .  T
C4457      N4461   1.157       .  T
C4458      N4464   1.157       .  T
C4459      N4468   1.157       .  T
C4460      N4466   1.157       .  T
C4469      C4470   1.401       .  A
C4469      C4474   1.418       .  A
C4469      C4487   1.454       .  S
C4470      C4471   1.402       .  A
C4470      C4475   1.508       .  S
C4471      C4472   1.422       .  A
C4471      C4476   1.455       .  S
C4472      C4473   1.452       .  A
C4472      C4488   1.448       .  S
C4473      C4474   1.448       .  A
C4474      C4477   1.447       .  S
C4475      C4478   1.410       .  A
C4475      C4482   1.416       .  A
C4476      N4493   1.157       .  T
C4477      N4495   1.157       .  T
C4478      C4479   1.410       .  A
C4478      C4483   1.452       .  S
C4479      C4480   1.417       .  A
C4479      C4485   1.449       .  S
C4480      C4481   1.413       .  A
C4481      C4482   1.417       .  A
C4481      C4484   1.451       .  S
C4482      C4486   1.447       .  S
C4483      N4490   1.157       .  T
C4484      N4491   1.157       .  T
C4485      N4489   1.156       .  T
C4486      N4492   1.157       .  T
C4487      N4496   1.157       .  T
C4488      N4494   1.157   1_565  T
C4497      C4498   1.410       .  A
C4497      C4502   1.410       .  A
C4497      C4515   1.452       .  S
C4498      C4499   1.411       .  A
C4498      C4503   1.498       .  S
C4499      C4500   1.411       .  A
C4499      C4504   1.452       .  S
C4500      C4501   1.415       .  A
C4500      C4516   1.447       .  S
C4501      C4502   1.418       .  A
C4502      C4505   1.452       .  S
C4503      C4506   1.410       .  A
C4503      C4510   1.412       .  A
C4504      N4521   1.157       .  T
C4505      N4523   1.157       .  T
C4506      C4507   1.412       .  A
C4506      C4511   1.451       .  S
C4507      C4508   1.417       .  A
C4507      C4513   1.451       .  S
C4508      C4509   1.414       .  A
C4509      C4510   1.409       .  A
C4509      C4512   1.450       .  S
C4510      C4514   1.452       .  S
C4511      N4518   1.157       .  T
C4512      N4519   1.157       .  T
C4513      N4517   1.157       .  T
C4514      N4520   1.157       .  T
C4515      N4524   1.157       .  T
C4516      N4522   1.157       .  T
C4525      C4526   1.411       .  A
C4525      C4530   1.414       .  A
C4525      C4543   1.451       .  S
C4526      C4527   1.410       .  A
C4526      C4531   1.504       .  S
C4527      C4528   1.413       .  A
C4527      C4532   1.451       .  S
C4528      C4529   1.415       .  A
C4528      C4544   1.447       .  S
C4529      C4530   1.419       .  A
C4530      C4533   1.451       .  S
C4531      C4534   1.409       .  A
C4531      C4538   1.413       .  A
C4532      N4549   1.157       .  T
C4533      N4551   1.157       .  T
C4534      C4535   1.413       .  A
C4534      C4539   1.451       .  S
C4535      C4536   1.419       .  A
C4535      C4541   1.447       .  S
C4536      C4537   1.417       .  A
C4537      C4538   1.414       .  A
C4537      C4540   1.449       .  S
C4538      C4542   1.452       .  S
C4539      N4546   1.157       .  T
C4540      N4547   1.157       .  T
C4541      N4545   1.156       .  T
C4542      N4548   1.157       .  T
C4543      N4552   1.157       .  T
C4544      N4550   1.157       .  T
C4553      C4554   1.413       .  A
C4553      C4558   1.409       .  A
C4553      C4571   1.451       .  S
C4554      C4555   1.415       .  A
C4554      C4559   1.504       .  S
C4555      C4556   1.412       .  A
C4555      C4560   1.451       .  S
C4556      C4557   1.413       .  A
C4556      C4572   1.449       .  S
C4557      C4558   1.416       .  A
C4558      C4561   1.451       .  S
C4559      C4562   1.409       .  A
C4559      C4566   1.413       .  A
C4560      N4577   1.157       .  T
C4561      N4579   1.157       .  T
C4562      C4563   1.412       .  A
C4562      C4567   1.452       .  S
C4563      C4564   1.426       .  A
C4563      C4569   1.452       .  S
C4564      C4565   1.423       .  A
C4565      C4566   1.413       .  A
C4565      C4568   1.451       .  S
C4566      C4570   1.453       .  S
C4567      N4574   1.157       .  T
C4568      N4575   1.157       .  T
C4569      N4573   1.157       .  T
C4570      N4576   1.157       .  T
C4571      N4580   1.157       .  T
C4572      N4578   1.157       .  T
C4581      C4582   1.414       .  A
C4581      C4586   1.416       .  A
C4581      C4599   1.450       .  S
C4582      C4583   1.413       .  A
C4582      C4587   1.507       .  S
C4583      C4584   1.410       .  A
C4583      C4588   1.452       .  S
C4584      C4585   1.417       .  A
C4584      C4600   1.452       .  S
C4585      C4586   1.414       .  A
C4586      C4589   1.449       .  S
C4587      C4590   1.410       .  A
C4587      C4594   1.408       .  A
C4588      N4605   1.157       .  T
C4589      N4607   1.157       .  T
C4590      C4591   1.414       .  A
C4590      C4595   1.453       .  S
C4591      C4592   1.427       .  A
C4591      C4597   1.451       .  S
C4592      C4593   1.429       .  A
C4593      C4594   1.416       .  A
C4593      C4596   1.451       .  S
C4594      C4598   1.452       .  S
C4595      N4602   1.157       .  T
C4596      N4603   1.157       .  T
C4597      N4601   1.157       .  T
C4598      N4604   1.157       .  T
C4599      N4608   1.157       .  T
C4600      N4606   1.158       .  T
C4609      C4610   1.417       .  A
C4609      C4614   1.413       .  A
C4609      C4627   1.451       .  S
C4610      C4615   1.509       .  S
C4611      C4612   1.412       .  A
C4611      C4616   1.451       .  S
C4612      C4628   1.451       .  S
C4613      C4614   1.411       .  A
C4614      C4617   1.450       .  S
C4615      C4622   1.401       .  A
C4616      N4633   1.157       .  T
C4617      N4635   1.157       .  T
C4618      C4619   1.422       .  A
C4618      C4623   1.456       .  S
C4619      C4625   1.450       .  S
C4620      C4621   1.449       .  A
C4621      C4622   1.416       .  A
C4621      C4624   1.449       .  S
C4622      C4626   1.457       .  S
C4623      N4630   1.157       .  T
C4624      N4631   1.157       .  T
C4625      N4629   1.158       .  T
C4626      N4632   1.157       .  T
C4627      N4636   1.157       .  T
C4628      N4634   1.157       .  T
C4637      C4642   1.416       .  A
C4637      C4655   1.450       .  S
C4638      C4639   1.412       .  A
C4638      C4643   1.505       .  S
C4639      C4640   1.408       .  A
C4639      C4644   1.452       .  S
C4640      C4641   1.413       .  A
C4640      C4656   1.450       .  S
C4642      C4645   1.450       .  S
C4643      C4646   1.399       .  A
C4644      N4661   1.157       .  T
C4645      N4663   1.157       .  T
C4646      C4647   1.419       .  A
C4646      C4651   1.455       .  S
C4647      C4648   1.449       .  A
C4647      C4653   1.449       .  S
C4649      C4650   1.421       .  A
C4649      C4652   1.450       .  S
C4650      C4654   1.457       .  S
C4651      N4658   1.157       .  T
C4652      N4659   1.158       .  T
C4653      N4657   1.157       .  T
C4654      N4660   1.157       .  T
C4655      N4664   1.157       .  T
C4656      N4662   1.156       .  T
C4665      C4666   1.400       .  A
C4665      C4670   1.419       .  A
C4665      C4683   1.457       .  S
C4666      C4667   1.401       .  A
C4666      C4671   1.511       .  S
C4667      C4668   1.424       .  A
C4667      C4672   1.456       .  S
C4668      C4669   1.454       .  A
C4668      C4684   1.448       .  S
C4669      C4670   1.452       .  A
C4670      C4673   1.448       .  S
C4671      C4674   1.415       .  A
C4671      C4678   1.414       .  A
C4672      N4689   1.157       .  T
C4673      N4691   1.157       .  T
C4674      C4675   1.413       .  A
C4674      C4679   1.450       .  S
C4675      C4676   1.414       .  A
C4675      C4681   1.452       .  S
C4676      C4677   1.415       .  A
C4677      C4678   1.415       .  A
C4677      C4680   1.448       .  S
C4678      C4682   1.451       .  S
C4679      N4686   1.157       .  T
C4680      N4687   1.156       .  T
C4681      N4685   1.157       .  T
C4682      N4688   1.157       .  T
C4683      N4692   1.157       .  T
C4684      N4690   1.158       .  T
C4693      C4694   1.413       .  A
C4693      C4698   1.410       .  A
C4693      C4711   1.450       .  S
C4694      C4695   1.413       .  A
C4694      C4699   1.502       .  S
C4695      C4696   1.411       .  A
C4695      C4700   1.449       .  S
C4696      C4697   1.411       .  A
C4696      C4712   1.452       .  S
C4697      C4698   1.408       .  A
C4698      C4701   1.447       .  S
C4699      C4702   1.396       .  A
C4699      C4706   1.397       .  A
C4700      N4717   1.157       .  T
C4701      N4719   1.156       .  T
C4702      C4703   1.418       .  A
C4702      C4707   1.456       .  S
C4703      C4704   1.450       .  A
C4703      C4709   1.447       .  S
C4704      C4705   1.455       .  A
C4705      C4706   1.420       .  A
C4705      C4708   1.447       .  S
C4706      C4710   1.458       .  S
C4707      N4714   1.157       .  T
C4708      N4715   1.157   1_565  T
C4709      N4713   1.157       .  T
C4710      N4716   1.157       .  T
C4711      N4720   1.157       .  T
C4712      N4718   1.157       .  T
