geometry optimzed in LAMMPS
_audit_creation_date              2020-11-30 
_audit_creation_method            'lammps2cif' 
_symmetry_space_group_name_H-M    'P1' 
_symmetry_Int_Tables_number       1 
_symmetry_cell_setting            triclinic 
loop_ 
_symmetry_equiv_pos_as_xyz 
  x,y,z 
_cell_length_a                    29.440338209025615 
_cell_length_b                    25.065386372204888 
_cell_length_c                    37.948714913046835 
_cell_angle_alpha                 90.51117844170632 
_cell_angle_beta                  90.85907131942133 
_cell_angle_gamma                 89.93625904023241 
loop_ 
_atom_site_label 
_atom_site_type_symbol 
_atom_site_fract_x 
_atom_site_fract_y 
_atom_site_fract_z 
_atom_site_charge 
O1          O  0.89417271  0.42850796  0.82747315    -0.74480
O2          O  0.93049771  0.35786659  0.80214106    -0.53390
C3          C  0.89900336  0.37907073  0.82175572     0.79250
O4          O  0.91251410  0.59995351  0.68923760    -0.59080
O5          O  0.94941642  0.66326411  0.72240243    -0.52110
C6          C  0.92212680  0.64878815  0.69702011     0.71260
O7          O  0.91248029  0.42180286  0.68806613    -0.73640
O8          O  0.94314839  0.35615050  0.72191757    -0.54200
C9          C  0.91874867  0.37242615  0.69556651     0.77260
O10         O  0.89023358  0.59058923  0.82446283    -0.58780
O11         O  0.93080271  0.66017573  0.80257520    -0.51900
C12         C  0.89683189  0.63987221  0.81983625     0.73860
Zr13       Zr  0.92474591  0.50970191  0.81085385     2.54710
O14         O  0.84269950  0.50606239  0.80159024    -0.79350
O15         O  0.92247357  0.51641927  0.87475498    -0.92770
Zr16       Zr  0.93169844  0.51056850  0.70936754     2.64680
O17         O  0.84895951  0.51286377  0.70820968    -0.97720
O18         O  0.94204318  0.50851941  0.64589671    -0.79780
O19         O  0.92641414  0.45627686  0.75984172    -0.83140
O20         O  0.92803345  0.56369880  0.76079899    -2.17850
O21         O  0.08219892  0.58802208  0.83723200    -0.66530
O22         O  0.05285727  0.66003434  0.80970687    -0.51100
C23         C  0.08068761  0.63766746  0.83244115     0.72240
O24         O  0.08047996  0.41540412  0.69694582    -0.59440
O25         O  0.03921322  0.35154927  0.72532409    -0.51420
C26         C  0.06841903  0.36656599  0.70256459     0.74040
O27         O  0.08047413  0.59719051  0.69493365    -0.70830
O28         O  0.04236663  0.66246308  0.72543268    -0.49510
C29         C  0.06959515  0.64619828  0.70124644     0.75430
O30         O  0.09135302  0.42752052  0.82970765    -0.66160
O31         O  0.05664351  0.35825791  0.80084489    -0.53360
C32         C  0.08867262  0.37888813  0.82099725     0.73810
Zr33       Zr  0.05347718  0.50671611  0.81802467     2.77540
O34         O  0.13586206  0.50451200  0.82684825    -0.96910
O35         O  0.03602696  0.49597840  0.87989237    -0.77730
Zr36       Zr  0.06278670  0.50739566  0.71598065     2.70070
O37         O  0.14499143  0.50779128  0.72383860    -0.78980
O38         O  0.06444466  0.50501849  0.65184811    -0.98060
Zr39       Zr  0.99183427  0.40035852  0.76575161     2.21500
Zr40       Zr  0.99457183  0.61748049  0.76770687     2.11130
O41         O  0.06035539  0.56074007  0.76790268    -2.46750
O42         O  0.05837359  0.45425220  0.76690628    -0.78770
O43         O  0.98980895  0.56346709  0.81861964    -0.70970
O44         O  0.99619198  0.45515581  0.71370737    -2.31930
O45         O  0.98826008  0.45305915  0.81766483    -2.28130
O46         O  0.99787773  0.56300895  0.71494600    -0.72730
H47         H  0.90106884  0.58573013  0.75876660     0.79270
H48         H  0.99704697  0.43313587  0.69268469     0.80360
H49         H  0.08798491  0.58173372  0.76925603     0.82580
H50         H  0.98668258  0.43124321  0.83861450     0.80190
H51         H  0.96518100  0.48063394  0.64171829     0.43220
H52         H  0.04362624  0.53387201  0.64421525     0.42190
H53         H  0.15058510  0.48588351  0.74508924     0.41870
H54         H  0.14817941  0.53270300  0.81163239     0.39810
H55         H  0.01471066  0.52544200  0.88510268     0.42940
H56         H  0.93621843  0.48278599  0.88324235     0.37720
H57         H  0.83783167  0.47918487  0.78259931     0.43840
H58         H  0.84058168  0.53675816  0.72798038     0.40250
H59         H  0.14183511  0.51708947  0.85136079     0.45170
H60         H  0.88986595  0.51318589  0.88038039     0.43900
H61         H  0.84091730  0.53345561  0.68683290     0.44030
H62         H  0.09512577  0.51786872  0.64582193     0.44390
C63         C  0.72611969  0.35292167  0.88493784     0.03940
C64         C  0.71136367  0.30071773  0.88078600    -0.12210
C65         C  0.66858635  0.28426719  0.89041746     0.01440
C66         C  0.64099234  0.32042219  0.90966108    -0.10740
C67         C  0.65287050  0.37492457  0.91430347     0.03930
C68         C  0.69687437  0.39088387  0.90203641    -0.10160
H69         H  0.73256746  0.27367689  0.86597667     0.09530
H70         H  0.60840610  0.30687269  0.91894835     0.07060
H71         H  0.70740996  0.43210905  0.90454705     0.06900
O72         O  0.56445900  0.08531751  0.82274553    -0.74480
O73         O  0.61704201  0.07722428  0.78144604    -0.53390
C74         C  0.60066208  0.10095762  0.80900110     0.79250
O75         O  0.41792022  0.90358494  0.81099462    -0.59080
O76         O  0.36205667  0.94847455  0.78157095    -0.52110
C77         C  0.37653414  0.91403283  0.80413038     0.71260
O78         O  0.56326158  0.89692754  0.80899994    -0.73640
O79         O  0.62121598  0.93989730  0.78222360    -0.54200
C80         C  0.60516349  0.90375491  0.80264641     0.77260
O81         O  0.42505474  0.10954709  0.81695722    -0.58780
O82         O  0.36618995  0.06760004  0.78934513    -0.51900
C83         C  0.38287802  0.09985934  0.81314049     0.73860
Zr84       Zr  0.49405806  0.08284312  0.79226512     2.54710
O85         O  0.49837530  0.10422292  0.85478938    -0.79350
O86         O  0.49123674  0.16719448  0.75975924    -0.92770
Zr87       Zr  0.49049146  0.92454169  0.78978726     2.64680
O88         O  0.49674492  0.89927786  0.85147995    -0.97720
O89         O  0.47991911  0.83086918  0.77437935    -0.79780
O90         O  0.53495252  0.00225885  0.79539528    -0.83140
O91         O  0.45001478  0.00525355  0.79559018    -2.17850
O92         O  0.41400061  0.10293843  0.66794157    -0.66530
O93         O  0.36403023  0.07194119  0.70793172    -0.51100
C94         C  0.37309607  0.09531843  0.67898158     0.72240
O95         O  0.56849486  0.90839697  0.66711427    -0.59440
O96         O  0.61827159  0.95303255  0.70275778    -0.51420
C97         C  0.60941327  0.92227067  0.67667251     0.74040
O98         O  0.40852836  0.90643445  0.67100385    -0.70830
O99         O  0.36173297  0.95848862  0.70423474    -0.49510
C100        C  0.36864775  0.92336929  0.68037139     0.75430
O101        O  0.57124452  0.09770556  0.66872581    -0.66160
O102        O  0.62253822  0.05312093  0.70358694    -0.53360
C103        C  0.61207534  0.08345462  0.67771395     0.73810
Zr104      Zr  0.49261869  0.08447023  0.68918775     2.77540
O105        O  0.49308395  0.07868862  0.62511311    -0.96910
O106        O  0.49522454  0.18148135  0.68691377    -0.77730
Zr107      Zr  0.48947889  0.92760621  0.68714234     2.70070
O108        O  0.48601734  0.93913338  0.62354381    -0.78980
O109        O  0.49153275  0.83071816  0.68135383    -0.98060
Zr110      Zr  0.57984104  0.00445181  0.74513971     2.21500
Zr111      Zr  0.40450649  0.01011925  0.74469634     2.11130
O112        O  0.44656317  0.00738238  0.69052545    -2.46750
O113        O  0.53542984  0.00493757  0.69144685    -0.78770
O114        O  0.44832943  0.08841129  0.74146963    -0.70970
O115        O  0.53546027  0.92431951  0.73933744    -2.31930
O116        O  0.53884755  0.08556169  0.74157339    -2.28130
O117        O  0.44462070  0.92741308  0.73894935    -0.72730
H118        H  0.43239297  0.00529069  0.81703167     0.79270
H119        H  0.55460721  0.89291435  0.73870500     0.80360
H120        H  0.42626532  0.00739192  0.67016768     0.82580
H121        H  0.55941543  0.11562624  0.74124304     0.80190
H122        H  0.48204347  0.82926615  0.74836079     0.43220
H123        H  0.45959873  0.81924168  0.68338346     0.42190
H124        H  0.51330249  0.96039755  0.61811005     0.41870
H125        H  0.46754225  0.05468234  0.61870587     0.39810
H126        H  0.46360158  0.19302315  0.69116419     0.42940
H127        H  0.51970921  0.18766294  0.76285448     0.37720
H128        H  0.50126095  0.06903271  0.86631327     0.43840
H129        H  0.47484209  0.92247941  0.86397518     0.40250
H130        H  0.48308128  0.11436936  0.61712803     0.45170
H131        H  0.46634889  0.18940711  0.76928213     0.43900
H132        H  0.48353368  0.86305971  0.85248952     0.44030
H133        H  0.49885800  0.82412799  0.65622316     0.44390
C134        C  0.26027084  0.68695611  0.89383437     0.03940
C135        C  0.27566583  0.73926755  0.89818698    -0.12210
C136        C  0.32148242  0.75049297  0.89462609     0.01440
C137        C  0.35388196  0.71076066  0.90168103    -0.10740
C138        C  0.34007999  0.65831635  0.90925732     0.03930
C139        C  0.29327384  0.64556334  0.90173184    -0.10160
H140        H  0.25208948  0.77230362  0.89790394     0.09530
H141        H  0.38961546  0.72081380  0.90071182     0.07060
H142        H  0.28421197  0.60397116  0.90060567     0.06900
C143        C  0.73085976  0.67666492  0.89278076     0.03940
C144        C  0.71733359  0.72955275  0.89025113    -0.12210
C145        C  0.67275487  0.74455729  0.89599471     0.01440
C146        C  0.64296750  0.70860984  0.91217556    -0.10740
C147        C  0.65511549  0.65467268  0.91734148     0.03930
C148        C  0.69987740  0.63849783  0.90690112    -0.10160
H149        H  0.73980957  0.75733182  0.87735513     0.09530
H150        H  0.60844680  0.72146554  0.91703628     0.07060
H151        H  0.70959777  0.59689732  0.90817990     0.06900
C152        C  0.25888463  0.35044828  0.89395981     0.03940
C153        C  0.27440512  0.29810759  0.89292239    -0.12210
C154        C  0.31983945  0.28726157  0.88570480     0.01440
C155        C  0.35161775  0.32881710  0.89415603    -0.10740
C156        C  0.33771896  0.37933126  0.90777720     0.03930
C157        C  0.29037976  0.39154994  0.90389434    -0.10160
H158        H  0.24944712  0.26657492  0.89220499     0.09530
H159        H  0.38718026  0.32367824  0.88964443     0.07060
H160        H  0.27852072  0.43207434  0.90759230     0.06900
C161        C  0.21424306  0.15351690  0.59525473     0.03940
C162        C  0.19564321  0.19711893  0.61334191    -0.12210
C163        C  0.14940900  0.20837356  0.61066809     0.01440
C164        C  0.12201823  0.17781261  0.58816274    -0.10740
C165        C  0.13978939  0.13512892  0.56830159     0.03930
C166        C  0.18647111  0.12308939  0.57183300    -0.10160
H167        H  0.21637617  0.21927781  0.63225346     0.09530
H168        H  0.08601877  0.18683751  0.58721834     0.07060
H169        H  0.20027608  0.08808440  0.55890037     0.06900
C170        C  0.19508323  0.89007132  0.61246826     0.03940
C171        C  0.17270883  0.84980805  0.63057375    -0.12210
C172        C  0.13858806  0.81913681  0.61473936     0.01440
C173        C  0.12161477  0.83692751  0.58185671    -0.10740
C174        C  0.13623121  0.88601798  0.56737762     0.03930
C175        C  0.17565149  0.91025395  0.58133683    -0.10160
H176        H  0.18392367  0.84066921  0.65701876     0.09530
H177        H  0.09548223  0.81464558  0.56798098     0.07060
H178        H  0.18962529  0.94563957  0.56942950     0.06900
C179        C  0.77124104  0.14915454  0.60182923     0.03940
C180        C  0.78775160  0.19914908  0.61285018    -0.12210
C181        C  0.83078814  0.21581291  0.60334825     0.01440
C182        C  0.85444958  0.18722679  0.57811788    -0.10740
C183        C  0.83832446  0.13774710  0.56562922     0.03930
C184        C  0.79652717  0.11833249  0.57773969    -0.10160
H185        H  0.76929964  0.22238130  0.63218597     0.09530
H186        H  0.88764453  0.20169395  0.57070811     0.07060
H187        H  0.78539012  0.07850305  0.57045792     0.06900
C188        C  0.77299684  0.87319755  0.60039787     0.03940
C189        C  0.79322838  0.83039465  0.61825041    -0.12210
C190        C  0.83780279  0.81562358  0.61158058     0.01440
C191        C  0.86155916  0.84215917  0.58556606    -0.10740
C192        C  0.84216827  0.88580489  0.56721251     0.03930
C193        C  0.79737668  0.90126869  0.57484290    -0.10160
H194        H  0.77491674  0.81037278  0.63890161     0.09530
H195        H  0.89621765  0.82965207  0.58087715     0.07060
H196        H  0.78259902  0.93632705  0.56272186     0.06900
O197        O  0.56815432  0.40944665  0.05558904    -0.74480
O198        O  0.62453823  0.45441692  0.02785396    -0.53390
C199        C  0.61026017  0.41838632  0.04929519     0.79250
O200        O  0.41611527  0.40660540  0.91848940    -0.59080
O201        O  0.36068447  0.45560939  0.94541132    -0.52110
C202        C  0.37351382  0.41712819  0.92450378     0.71260
O203        O  0.57433191  0.40284533  0.92280903    -0.73640
O204        O  0.62999894  0.45251500  0.94989146    -0.54200
C205        C  0.61706631  0.41305290  0.92980062     0.77260
O206        O  0.41881519  0.41118610  0.05582731    -0.58780
O207        O  0.36445493  0.45908277  0.02626207    -0.51900
C208        C  0.37706743  0.42264983  0.04860985     0.73860
Zr209      Zr  0.49362062  0.44283491  0.03843537     2.54710
O210        O  0.49229480  0.34568597  0.03802075    -0.79350
O211        O  0.49348510  0.45337942  0.10226472    -0.92770
Zr212      Zr  0.49515764  0.43667806  0.93483632     2.64680
O213        O  0.49710541  0.34060028  0.94319202    -0.97720
O214        O  0.49494341  0.43384899  0.87076566    -0.79780
O215        O  0.53940477  0.43914894  0.98749364    -0.83140
O216        O  0.44912014  0.44044087  0.98586646    -2.17850
O217        O  0.42167124  0.63304706  0.05379591    -0.66530
O218        O  0.36588676  0.58439167  0.02600662    -0.51100
C219        C  0.37961609  0.62188221  0.04771529     0.72240
O220        O  0.57636784  0.62797832  0.92375510    -0.59440
O221        O  0.63135967  0.57726835  0.95033678    -0.51420
C222        C  0.61885923  0.61698902  0.93101523     0.74040
O223        O  0.41796295  0.62845353  0.91782292    -0.70830
O224        O  0.36173920  0.58199902  0.94507899    -0.49510
C225        C  0.37526578  0.61944953  0.92433209     0.75430
O226        O  0.57087071  0.63340831  0.05058673    -0.66160
O227        O  0.62639081  0.58198980  0.02610649    -0.53360
C228        C  0.61282751  0.62177741  0.04538403     0.73810
Zr229      Zr  0.49568036  0.59888351  0.03621254     2.77540
O230        O  0.49724721  0.69613109  0.03545389    -0.96910
O231        O  0.49832939  0.59068272  0.10006090    -0.77730
Zr232      Zr  0.49648624  0.59514441  0.93264162     2.70070
O233        O  0.49698245  0.69207591  0.92912264    -0.78980
O234        O  0.49841299  0.58389832  0.86899868    -0.98060
Zr235      Zr  0.58665682  0.51676659  0.98690409     2.21500
Zr236      Zr  0.40324235  0.51979718  0.98461890     2.11130
O237        O  0.45081399  0.59786293  0.98387266    -2.46750
O238        O  0.54100147  0.59602409  0.98514828    -0.78770
O239        O  0.44881395  0.52171149  0.03748371    -0.70970
O240        O  0.54104773  0.51530644  0.93355156    -2.31930
O241        O  0.54068606  0.52009154  0.03878155    -2.28130
O242        O  0.45056900  0.51660041  0.93316805    -0.72730
H243        H  0.43002081  0.40906519  0.98626265     0.79270
H244        H  0.56054691  0.51423731  0.91312698     0.80360
H245        H  0.43243791  0.62988584  0.98370334     0.82580
H246        H  0.55977571  0.52087495  0.05985096     0.80190
H247        H  0.52098047  0.45639787  0.86414085     0.43220
H248        H  0.47166011  0.56138320  0.86326487     0.42190
H249        H  0.50647400  0.70418089  0.95307492     0.41870
H250        H  0.47081648  0.70673478  0.02070686     0.39810
H251        H  0.47047382  0.57068221  0.10580736     0.42940
H252        H  0.52335185  0.46931888  0.10838589     0.37720
H253        H  0.51240293  0.33515532  0.01842716     0.43840
H254        H  0.46523616  0.33015009  0.94701693     0.40250
H255        H  0.48928867  0.70735328  0.05973592     0.45170
H256        H  0.49541361  0.41647942  0.11125754     0.43900
H257        H  0.50463572  0.32595535  0.91962012     0.44030
H258        H  0.49035666  0.61951971  0.85971415     0.44390
C259        C  0.27276058  0.66030019  0.09844978     0.03940
C260        C  0.30303288  0.63209148  0.07674774    -0.12210
C261        C  0.34545482  0.65438686  0.06814223     0.01440
C262        C  0.35664037  0.70597262  0.08234322    -0.10740
C263        C  0.32556382  0.73437968  0.10382454     0.03930
C264        C  0.28371138  0.71133803  0.11067954    -0.10160
H265        H  0.29463541  0.59181442  0.06838506     0.09530
H266        H  0.38950655  0.72346423  0.07732205     0.07060
H267        H  0.26027609  0.73209952  0.12786716     0.06900
C268        C  0.72124308  0.36192616  0.08677146     0.03940
C269        C  0.69052099  0.39547112  0.06873070    -0.12210
C270        C  0.64387414  0.38322217  0.06777835     0.01440
C271        C  0.62895963  0.33787031  0.08644835    -0.10740
C272        C  0.66033741  0.30211323  0.10196971     0.03930
C273        C  0.70651231  0.31288389  0.09920021    -0.10160
H274        H  0.70229026  0.43330929  0.05876069     0.09530
H275        H  0.59297502  0.33031859  0.08897140     0.07060
H276        H  0.73098312  0.28612511  0.11130709     0.06900
C277        C  0.71637022  0.66753155  0.09905336     0.03940
C278        C  0.68899125  0.63692348  0.07585632    -0.12210
C279        C  0.64670457  0.65689575  0.06418537     0.01440
C280        C  0.63380813  0.70900342  0.07511669    -0.10740
C281        C  0.66044859  0.73869935  0.09964583     0.03930
C282        C  0.70187401  0.71754268  0.11075209    -0.10160
H283        H  0.69918083  0.59664275  0.06901853     0.09530
H284        H  0.60127813  0.72498924  0.06662445     0.07060
H285        H  0.72161135  0.73801740  0.13107652     0.06900
O286        O  0.39970700  0.94595714  0.15977825    -0.74480
O287        O  0.35101005  0.95602640  0.20443836    -0.53390
C288        C  0.36330868  0.93346392  0.17527436     0.79250
O289        O  0.55628322  0.92169537  0.31079666    -0.59080
O290        O  0.60703342  0.96988061  0.27953104    -0.52110
C291        C  0.59713428  0.93633259  0.30353498     0.71260
O292        O  0.40123430  0.92388579  0.30885226    -0.73640
O293        O  0.35012018  0.97897818  0.28177483    -0.54200
C294        C  0.36067699  0.94202408  0.30364930     0.77260
O295        O  0.54364638  0.92570248  0.16268903    -0.58780
O296        O  0.60008826  0.94751282  0.20176331    -0.51900
C297        C  0.58318052  0.91876519  0.17619552     0.73860
Zr298      Zr  0.47237173  0.94735990  0.18859315     2.54710
O299        O  0.45168514  0.86844659  0.22133936    -0.79350
O300        O  0.47284450  0.89018801  0.13628513    -0.92770
Zr301      Zr  0.47871029  0.94587428  0.29150052     2.64680
O302        O  0.47717652  0.84894290  0.29521293    -0.97720
O303        O  0.48159758  0.95875980  0.35510115    -0.79780
O304        O  0.43065538  0.94670444  0.24051929    -0.83140
O305        O  0.52057587  0.94292819  0.23865841    -2.17850
O306        O  0.55217011  0.14506187  0.18357406    -0.66530
O307        O  0.60650640  0.08324427  0.19674134    -0.51100
C308        C  0.59257672  0.12691518  0.18193913     0.72240
O309        O  0.40619598  0.12487819  0.31369845    -0.59440
O310        O  0.35133069  0.08761487  0.27761762    -0.51420
C311        C  0.36470899  0.11526680  0.30439695     0.74040
O312        O  0.56047881  0.11386891  0.31677344    -0.70830
O313        O  0.60915194  0.07017042  0.28082640    -0.49510
C314        C  0.60086830  0.09901762  0.30806997     0.75430
O315        O  0.40821205  0.14879278  0.19019118    -0.66160
O316        O  0.35251520  0.08745055  0.19497788    -0.53360
C317        C  0.36917449  0.13033556  0.18167155     0.73810
Zr318      Zr  0.48006997  0.10356976  0.18978361     2.77540
O319        O  0.47250837  0.18596501  0.15647641    -0.96910
O320        O  0.48663788  0.06583248  0.13075791    -0.77730
Zr321      Zr  0.48247567  0.10232314  0.29358266     2.70070
O322        O  0.48779852  0.19923086  0.29356970    -0.78980
O323        O  0.47506404  0.09566368  0.35717110    -0.98060
Zr324      Zr  0.38993580  0.02863284  0.23836565     2.21500
Zr325      Zr  0.56650843  0.02144468  0.23682550     2.11130
O326        O  0.52585353  0.10370510  0.24157499    -2.46750
O327        O  0.43674123  0.10642580  0.24164557    -0.78770
O328        O  0.52059606  0.02292590  0.18559420    -0.70970
O329        O  0.43621201  0.02578531  0.29099977    -2.31930
O330        O  0.43197574  0.02928912  0.18587762    -2.28130
O331        O  0.52476039  0.02254883  0.29030951    -0.72730
H332        H  0.53842103  0.91044877  0.23843549     0.79270
H333        H  0.41751587  0.02610400  0.31172385     0.80360
H334        H  0.54615622  0.13383598  0.24403297     0.82580
H335        H  0.41266004  0.03440908  0.16517897     0.80190
H336        H  0.45810687  0.98583585  0.36017272     0.43220
H337        H  0.50340412  0.07833476  0.36554840     0.42190
H338        H  0.46751247  0.21036783  0.27388464     0.41870
H339        H  0.48646681  0.21403665  0.17158693     0.39810
H340        H  0.47669779  0.02813173  0.13052567     0.42940
H341        H  0.46257274  0.91326456  0.11660757     0.37720
H342        H  0.43213305  0.84778541  0.20476419     0.43840
H343        H  0.50570125  0.83698547  0.28421068     0.40250
H344        H  0.49322978  0.18201159  0.13626343     0.45170
H345        H  0.44788537  0.86435750  0.13937371     0.43900
H346        H  0.48164690  0.84153977  0.32069159     0.44030
H347        H  0.47682620  0.13288787  0.36593555     0.44390
O348        O  0.07398158  0.60839919  0.16826628    -0.74480
O349        O  0.12436478  0.55880965  0.20036055    -0.53390
C350        C  0.11478561  0.59236119  0.17596346     0.79250
O351        O  0.92397624  0.62188514  0.30823611    -0.59080
O352        O  0.86693268  0.57704061  0.27933357    -0.52110
C353        C  0.88219594  0.61348126  0.30072071     0.71260
O354        O  0.07027199  0.61439039  0.31085411    -0.73640
O355        O  0.12575094  0.57456994  0.27845027    -0.54200
C356        C  0.11134747  0.60861998  0.30129767     0.77260
O357        O  0.91750850  0.61194464  0.16932714    -0.58780
O358        O  0.86637423  0.56268732  0.19958874    -0.51900
C359        C  0.87640276  0.59725511  0.17640662     0.73860
Zr360      Zr  0.99607845  0.58714908  0.18784690     2.54710
O361        O  0.99821393  0.68405917  0.18494211    -0.79350
O362        O  0.99122505  0.57072626  0.12472734    -0.92770
Zr363      Zr  0.99636720  0.58930147  0.29095257     2.64680
O364        O  0.00189658  0.68532674  0.28232754    -0.97720
O365        O  0.99565669  0.59730619  0.35483815    -0.79780
O366        O  0.04190194  0.58787528  0.24027889    -0.83140
O367        O  0.95136470  0.59034882  0.23932288    -2.17850
O368        O  0.91556846  0.41465889  0.16644896    -0.66530
O369        O  0.86492444  0.45649401  0.20154652    -0.51100
C370        C  0.87454989  0.42690160  0.17510912     0.72240
O371        O  0.06902660  0.42554885  0.29516123    -0.59440
O372        O  0.13454071  0.44738389  0.28192810    -0.51420
C373        C  0.10990936  0.41695072  0.30041159     0.74040
O374        O  0.91995201  0.40092326  0.30896710    -0.70830
O375        O  0.86498964  0.44250251  0.27621128    -0.49510
C376        C  0.87908398  0.40622468  0.29799921     0.75430
O377        O  0.07051924  0.41130709  0.16595308    -0.66160
O378        O  0.12352453  0.45319987  0.20086256    -0.53360
C379        C  0.11188529  0.42433524  0.17417601     0.73810
Zr380      Zr  0.99375935  0.43055094  0.18823576     2.77540
O381        O  0.99417277  0.33347893  0.19018746    -0.96910
O382        O  0.98706343  0.42951293  0.12437111    -0.77730
Zr383      Zr  0.99112421  0.43196471  0.29111083     2.70070
O384        O  0.99393802  0.34252510  0.26524705    -0.78980
O385        O  0.99385546  0.42875547  0.35549003    -0.98060
Zr386      Zr  0.08528780  0.50695606  0.24350767     2.21500
Zr387      Zr  0.90633120  0.51128319  0.24213028     2.11130
O388        O  0.94787576  0.43114951  0.23915392    -2.46750
O389        O  0.03816993  0.42915039  0.24113141    -0.78770
O390        O  0.95036738  0.50991142  0.18953526    -0.70970
O391        O  0.03803035  0.50954222  0.29435874    -2.31930
O392        O  0.03976424  0.50794087  0.18998544    -2.28130
O393        O  0.94979731  0.51255025  0.29421623    -0.72730
H394        H  0.93245244  0.62198584  0.23879670     0.79270
H395        H  0.05580806  0.51122225  0.31613380     0.80360
H396        H  0.92809504  0.40036715  0.23814431     0.82580
H397        H  0.05837260  0.50791008  0.16915612     0.80190
H398        H  0.00689645  0.56239813  0.36330830     0.43220
H399        H  0.02246291  0.44715369  0.36225146     0.42190
H400        H  0.02610784  0.33505703  0.25975475     0.41870
H401        H  0.96190673  0.32351451  0.19254458     0.39810
H402        H  0.96968533  0.46214163  0.11850642     0.42940
H403        H  0.01917945  0.55072971  0.11896927     0.37720
H404        H  0.01668974  0.69508077  0.20580195     0.43840
H405        H  0.97258296  0.69591744  0.27142375     0.40250
H406        H  0.00199304  0.32217479  0.16588142     0.45170
H407        H  0.99559990  0.60639361  0.11442876     0.43900
H408        H  0.00119560  0.70085383  0.30646215     0.44030
H409        H  0.96960884  0.45351505  0.36310800     0.44390
C410        C  0.26282641  0.37776599  0.08376993     0.03940
C411        C  0.29723925  0.41076828  0.07101138    -0.12210
C412        C  0.34128502  0.39011999  0.06655376     0.01440
C413        C  0.35091227  0.33891408  0.08121138    -0.10740
C414        C  0.31518255  0.30513840  0.09300193     0.03930
C415        C  0.27089259  0.32339487  0.08765291    -0.10160
H416        H  0.29035472  0.45262234  0.06642521     0.09530
H417        H  0.38586796  0.32603885  0.08359037     0.07060
H418        H  0.24230452  0.29771041  0.09265613     0.06900
C419        C  0.21079303  0.17233915  0.38686738     0.03940
C420        C  0.20530255  0.22731024  0.39019451    -0.12210
C421        C  0.16377775  0.24881389  0.39971809     0.01440
C422        C  0.13322131  0.21481130  0.41756313    -0.10740
C423        C  0.13964796  0.15869753  0.41725983     0.03930
C424        C  0.17818001  0.13781899  0.40071902    -0.10160
H425        H  0.23072587  0.25241828  0.37862915     0.09530
H426        H  0.10196912  0.23113998  0.42786147     0.07060
H427        H  0.18161926  0.09507779  0.39717946     0.06900
C428        C  0.75762465  0.17117677  0.39042239     0.03940
C429        C  0.76916048  0.22239052  0.37995558    -0.12210
C430        C  0.81257033  0.24259310  0.38633845     0.01440
C431        C  0.84368722  0.21195973  0.40658148    -0.10740
C432        C  0.83279261  0.15941137  0.41701309     0.03930
C433        C  0.78901388  0.13978362  0.40916068    -0.10160
H434        H  0.74607608  0.24343809  0.36237245     0.09530
H435        H  0.87772334  0.22712027  0.41120453     0.07060
H436        H  0.78056886  0.09868484  0.41476309     0.06900
C437        C  0.21165955  0.86356886  0.38470748     0.03940
C438        C  0.20189876  0.81090392  0.37569777    -0.12210
C439        C  0.15843889  0.79068082  0.38007604     0.01440
C440        C  0.12503885  0.82287418  0.39587400    -0.10740
C441        C  0.13588369  0.87533963  0.40736535     0.03930
C442        C  0.17956763  0.89519033  0.40169666    -0.10160
H443        H  0.22652975  0.78782110  0.36095393     0.09530
H444        H  0.09072687  0.80780367  0.39803587     0.07060
H445        H  0.18744124  0.93662354  0.40749526     0.06900
C446        C  0.75633977  0.86651185  0.38101616     0.03940
C447        C  0.76822431  0.81576207  0.36868187    -0.12210
C448        C  0.81247722  0.79678654  0.37270229     0.01440
C449        C  0.84473568  0.82812959  0.39116945    -0.10740
C450        C  0.83285165  0.87883824  0.40506582     0.03930
C451        C  0.78822011  0.89763388  0.39980935    -0.10160
H452        H  0.74393006  0.79292430  0.35295567     0.09530
H453        H  0.87928400  0.81358090  0.39374040     0.07060
H454        H  0.77919529  0.93781051  0.40785502     0.06900
O455        O  0.06505078  0.11133729  0.55335064    -0.74480
O456        O  0.12126982  0.06937504  0.52331327    -0.54010
C457        C  0.10716513  0.10261210  0.54687206     0.79250
O458        O  0.91454772  0.90690927  0.54885825    -0.59080
O459        O  0.85679876  0.95325677  0.52304212    -0.52110
C460        C  0.87240092  0.91750723  0.54444541     0.71260
O461        O  0.06250968  0.90341794  0.54832361    -0.73640
O462        O  0.11821626  0.95292647  0.52334523    -0.54200
C463        C  0.10427217  0.91569269  0.54404429     0.77260
O464        O  0.91225169  0.11463244  0.55121879    -0.58780
O465        O  0.85497132  0.06957974  0.52303958    -0.51900
C466        C  0.87003863  0.10475478  0.54515166     0.73860
Zr467      Zr  0.98820226  0.08936548  0.53502378     2.54710
O468        O  0.98824773  0.09240089  0.59907342    -0.79350
O469        O  0.98853738  0.18649871  0.53200042    -0.92770
Zr470      Zr  0.98825272  0.93384912  0.53112861     2.64680
O471        O  0.99196098  0.93638355  0.59528871    -0.97720
O472        O  0.98557898  0.83700867  0.52585474    -0.79780
O473        O  0.03332734  0.01143418  0.53451545    -0.83140
O474        O  0.94325175  0.01149889  0.53450496    -2.17850
O475        O  0.91030060  0.13405966  0.42466869    -0.66530
O476        O  0.85581882  0.08117922  0.44852079    -0.51100
C477        C  0.86853920  0.12269434  0.43128648     0.72240
O478        O  0.05956053  0.90138568  0.41432667    -0.59440
O479        O  0.11490299  0.94893552  0.44357790    -0.51420
C480        C  0.10125878  0.91100125  0.42267732     0.74040
O481        O  0.90959387  0.90344380  0.41469580    -0.70830
O482        O  0.85516804  0.95108821  0.44340809    -0.49510
C483        C  0.86796330  0.91346319  0.42225896     0.75430
O484        O  0.06217490  0.13342861  0.42321387    -0.66160
O485        O  0.11719846  0.07993615  0.44740281    -0.53360
C486        C  0.10408925  0.12162139  0.43014208     0.73810
Zr487      Zr  0.98629469  0.09469688  0.43211339     2.77540
O488        O  0.98440320  0.08291278  0.36841163    -0.96910
O489        O  0.98548871  0.19128659  0.42597563    -0.77730
Zr490      Zr  0.98540096  0.93779606  0.42822207     2.70070
O491        O  0.98360660  0.94737509  0.36449429    -0.78980
O492        O  0.98706304  0.84055273  0.42632303    -0.98060
Zr493      Zr  0.07729780  0.01313271  0.48230077     2.21500
Zr494      Zr  0.89670227  0.01307223  0.48236154     2.11130
O495        O  0.94009423  0.01648681  0.42928697    -2.46750
O496        O  0.03173370  0.01597094  0.42921242    -0.78770
O497        O  0.94223845  0.09213457  0.48372942    -0.70970
O498        O  0.03154042  0.93477313  0.47981170    -2.31930
O499        O  0.03197292  0.09251042  0.48398639    -2.28130
O500        O  0.94173975  0.93419538  0.47992252    -0.72730
H501        H  0.92491818  0.01080517  0.55555936     0.79270
H502        H  0.05002516  0.90285162  0.47982970     0.80360
H503        H  0.92006577  0.01753174  0.40874715     0.82580
H504        H  0.05062882  0.12410375  0.48602183     0.80190
H505        H  0.01107740  0.82742954  0.51027729     0.43220
H506        H  0.96425655  0.82917539  0.44361439     0.42190
H507        H  0.01133093  0.96796324  0.35926108     0.41870
H508        H  0.95168684  0.08309729  0.36199341     0.39810
H509        H  0.98387892  0.20508416  0.45051075     0.42940
H510        H  0.01969558  0.19614614  0.52515078     0.37720
H511        H  0.01016710  0.06445539  0.60629925     0.43840
H512        H  0.97512712  0.96902354  0.60198177     0.40250
H513        H  0.99606980  0.11700936  0.35922836     0.45170
H514        H  0.98635895  0.19858914  0.55690879     0.43900
H515        H  0.97233470  0.90675555  0.60294214     0.44030
H516        H  0.97379712  0.83053593  0.40301565     0.44390
C517        C  0.22529855  0.39911756  0.10525374    -0.04530
C518        C  0.18134617  0.40388998  0.09088099    -0.01640
C519        C  0.14371665  0.41051280  0.11308710     0.03350
C520        C  0.14968136  0.40957810  0.15025404    -0.04530
C521        C  0.19415850  0.40336021  0.16452446    -0.01630
C522        C  0.23181523  0.40130149  0.14219467     0.03340
C523        C  0.17498349  0.40257061  0.05306518     0.37990
C524        C  0.20123978  0.39465503  0.20204709     0.37980
C525        C  0.27735181  0.39715664  0.15735746     0.36410
C526        C  0.09947795  0.41955774  0.09705391     0.36410
N527        N  0.31352661  0.39330250  0.16944086    -0.38410
N528        N  0.06483597  0.42681110  0.08314012    -0.38410
N529        N  0.20696440  0.38671920  0.23178621    -0.37860
N530        N  0.16954384  0.40226372  0.02285983    -0.37860
C531        C  0.14082203  0.65042432  0.31589921    -0.04530
C532        C  0.15704201  0.64522227  0.35075962    -0.01640
C533        C  0.16168302  0.69092059  0.37255924     0.03350
C534        C  0.14746721  0.74130182  0.36003680    -0.04530
C535        C  0.13202138  0.74615618  0.32485985    -0.01630
C536        C  0.13228890  0.70160879  0.30221701     0.03340
C537        C  0.16647857  0.59244403  0.36439307     0.37990
C538        C  0.11265626  0.79596539  0.31256351     0.37980
C539        C  0.11913996  0.70733778  0.26538325     0.36410
C540        C  0.17881183  0.68582674  0.40832041     0.36410
N541        N  0.10897894  0.71182916  0.23598273    -0.38410
N542        N  0.19235208  0.68162718  0.43693977    -0.38410
N543        N  0.09544120  0.83469332  0.30272628    -0.37860
N544        N  0.17388136  0.55007396  0.37492386    -0.37860
C545        C  0.82549563  0.74673294  0.35381260    -0.04530
C546        C  0.82646968  0.74551223  0.31652051    -0.01640
C547        C  0.84044217  0.69906783  0.29848761     0.03350
C548        C  0.85168340  0.65256589  0.31737255    -0.04530
C549        C  0.84855360  0.65287575  0.35447189    -0.01630
C550        C  0.83608426  0.69994612  0.37266326     0.03340
C551        C  0.81602001  0.79290677  0.29635073     0.37990
C552        C  0.86169519  0.60559346  0.37394569     0.37980
C553        C  0.83565909  0.70071646  0.41082249     0.36410
C554        C  0.84852352  0.70140628  0.26086419     0.36410
N555        N  0.83570211  0.70139105  0.44131130    -0.38410
N556        N  0.85557125  0.70426083  0.23102315    -0.38410
N557        N  0.87254660  0.56770238  0.38912095    -0.37860
N558        N  0.80797045  0.82959752  0.27908430    -0.37860
C559        C  0.84972051  0.36307024  0.31113190    -0.04530
C560        C  0.86877284  0.31131220  0.31029338    -0.01640
C561        C  0.86126908  0.27559011  0.33775806     0.03350
C562        C  0.82759500  0.28683458  0.36294924    -0.04530
C563        C  0.80228311  0.33523925  0.35977779    -0.01630
C564        C  0.81428397  0.37380792  0.33440720     0.03340
C565        C  0.89663824  0.29474975  0.28092152     0.37990
C566        C  0.76431456  0.34588450  0.38263583     0.37980
C567        C  0.78964674  0.42362120  0.33123749     0.36410
C568        C  0.88890451  0.22756406  0.33970107     0.36410
N569        N  0.76965461  0.46307682  0.32786650    -0.38410
N570        N  0.91193396  0.19020750  0.34164923    -0.38410
N571        N  0.73342422  0.35443116  0.40032779    -0.37860
N572        N  0.91769100  0.27943469  0.25739958    -0.37860
C573        C  0.12458511  0.37610087  0.32741186    -0.04530
C574        C  0.16816672  0.37624373  0.34342034    -0.01640
C575        C  0.17818183  0.34059424  0.37150669     0.03350
C576        C  0.14831155  0.29736752  0.37929903    -0.04530
C577        C  0.10650482  0.29513053  0.36081424    -0.01630
C578        C  0.09296798  0.33699350  0.33888520     0.03340
C579        C  0.20251187  0.41311601  0.33157812     0.37990
C580        C  0.07691726  0.24851317  0.36227155     0.37980
C581        C  0.04466351  0.33812193  0.33155455     0.36410
C582        C  0.21914957  0.34920557  0.39237396     0.36410
N583        N  0.00569600  0.33207890  0.33078892    -0.38410
N584        N  0.25208651  0.35645189  0.40873062    -0.38410
N585        N  0.05246202  0.21241447  0.36281694    -0.37860
N586        N  0.23020796  0.44182149  0.32165542    -0.37860
C587        C  0.32287317  0.25338196  0.11312953    -0.04530
C588        C  0.29610081  0.23882786  0.14313633    -0.01640
C589        C  0.30778469  0.19407473  0.16392261     0.03350
C590        C  0.34453214  0.16203973  0.15472648    -0.04530
C591        C  0.36550080  0.17028228  0.12210384    -0.01630
C592        C  0.35637177  0.21645074  0.10216009     0.03340
C593        C  0.25543662  0.26704431  0.15331742     0.37990
C594        C  0.39355366  0.12853427  0.10741311     0.37980
C595        C  0.38089717  0.22424837  0.06976864     0.36410
C596        C  0.28111132  0.17970054  0.19429094     0.36410
N597        N  0.40123225  0.23005314  0.04422653    -0.38410
N598        N  0.25902590  0.16776443  0.21792458    -0.38410
N599        N  0.41389107  0.09494768  0.09378928    -0.37860
N600        N  0.22125505  0.28534250  0.16197771    -0.37860
C601        C  0.71545351  0.89087452  0.36493210    -0.04530
C602        C  0.71941688  0.91111625  0.33076890    -0.01640
C603        C  0.68066749  0.91748041  0.30947609     0.03350
C604        C  0.63671775  0.91529118  0.32437866    -0.04530
C605        C  0.63285855  0.89891589  0.36000784    -0.01630
C606        C  0.67218989  0.88417034  0.37951750     0.03340
C607        C  0.76367258  0.92584529  0.31755517     0.37990
C608        C  0.58914122  0.89714632  0.37699412     0.37980
C609        C  0.66842970  0.86272412  0.41468957     0.36410
C610        C  0.68675794  0.92216514  0.27173161     0.36410
N611        N  0.66551807  0.84554777  0.44276698    -0.38410
N612        N  0.69192819  0.92495119  0.24164357    -0.38410
N613        N  0.55454852  0.89551576  0.39102852    -0.37860
N614        N  0.79879323  0.93895394  0.30743949    -0.37860
C615        C  0.64127212  0.11524431  0.33075099    -0.04530
C616        C  0.63591640  0.13832920  0.36501139    -0.01640
C617        C  0.67428976  0.15322730  0.38560885     0.03350
C618        C  0.71810520  0.14676453  0.37225625    -0.04530
C619        C  0.72412430  0.12489679  0.33845248    -0.01630
C620        C  0.68654148  0.10704853  0.31842854     0.03340
C621        C  0.59159091  0.14761098  0.37996258     0.37990
C622        C  0.76922448  0.12422792  0.32318339     0.37980
C623        C  0.69607026  0.08066950  0.28509035     0.36410
C624        C  0.66887737  0.17732865  0.42023717     0.36410
N625        N  0.70422071  0.05948973  0.25869601    -0.38410
N626        N  0.66474749  0.19664933  0.44781428    -0.38410
N627        N  0.80494153  0.12487035  0.31086069    -0.37860
N628        N  0.55711901  0.15630566  0.39308036    -0.37860
C629        C  0.32866719  0.13356929  0.32748420    -0.04530
C630        C  0.31965878  0.10487896  0.35842062    -0.01640
C631        C  0.28037357  0.11612632  0.37770565     0.03350
C632        C  0.24859794  0.15344562  0.36463683    -0.04530
C633        C  0.25641412  0.17886956  0.33189019    -0.01630
C634        C  0.29806135  0.17215445  0.31517390     0.03340
C635        C  0.35058776  0.06345286  0.37026405     0.37990
C636        C  0.22166000  0.21163060  0.31503934     0.37980
C637        C  0.31078092  0.20702305  0.28664923     0.36410
C638        C  0.27312093  0.08967718  0.41097894     0.36410
N639        N  0.32160364  0.23594167  0.26470818    -0.38410
N640        N  0.26718405  0.06834711  0.43743144    -0.38410
N641        N  0.19414222  0.23791364  0.30166453    -0.37860
N642        N  0.37502848  0.03031798  0.37991444    -0.37860
C643        C  0.24958410  0.88846814  0.36658785    -0.04530
C644        C  0.29410365  0.88286811  0.37961099    -0.01640
C645        C  0.33082908  0.89993235  0.35928454     0.03350
C646        C  0.32293260  0.92033092  0.32484358    -0.04530
C647        C  0.27763537  0.92322947  0.31149092    -0.01630
C648        C  0.24125701  0.90978330  0.33295898     0.03340
C649        C  0.30185816  0.85910365  0.41391599     0.37990
C650        C  0.26769994  0.93734118  0.27510135     0.37980
C651        C  0.19494413  0.91710521  0.32006424     0.36410
C652        C  0.37617739  0.89625720  0.37447162     0.36410
N653        N  0.15827103  0.92405557  0.30973156    -0.38410
N654        N  0.41195380  0.89258694  0.38725732    -0.38410
N655        N  0.25925661  0.94830678  0.24617264    -0.37860
N656        N  0.30784379  0.83993584  0.44122214    -0.37860
C657        C  0.75695041  0.64527166  0.11694576    -0.04530
C658        C  0.75339528  0.62999601  0.15234614    -0.01640
C659        C  0.79269169  0.61926816  0.17245494     0.03350
C660        C  0.83636492  0.61957978  0.15659295    -0.04530
C661        C  0.83958753  0.63617823  0.12107241    -0.01630
C662        C  0.79999132  0.64980630  0.10166855     0.03340
C663        C  0.70896128  0.62754475  0.16858427     0.37990
C664        C  0.88315047  0.64003768  0.10408709     0.37980
C665        C  0.80344885  0.67073829  0.06634261     0.36410
C666        C  0.78730746  0.61059584  0.20997254     0.36410
N667        N  0.80597538  0.68809774  0.03830731    -0.38410
N668        N  0.78187870  0.60390493  0.23974998    -0.38410
N669        N  0.91747211  0.64403475  0.08991177    -0.37860
N670        N  0.67364713  0.62594066  0.18153278    -0.37860
C671        C  0.60758220  0.87169529  0.16133786    -0.04530
C672        C  0.58354700  0.82285521  0.15778448    -0.01640
C673        C  0.60015366  0.78078550  0.13691297     0.03350
C674        C  0.64188525  0.78597065  0.11946428    -0.04530
C675        C  0.66790954  0.83329240  0.12534991    -0.01630
C676        C  0.65083378  0.87575436  0.14638767     0.03340
C677        C  0.54209427  0.81364870  0.17680180     0.37990
C678        C  0.71212549  0.83890069  0.10957517     0.37980
C679        C  0.67752647  0.92357779  0.15254210     0.36410
C680        C  0.57449875  0.73117553  0.13483452     0.36410
N681        N  0.69888619  0.96158921  0.15797161    -0.38410
N682        N  0.55357937  0.69212902  0.13323156    -0.38410
N683        N  0.74774267  0.84333438  0.09745844    -0.37860
N684        N  0.50941017  0.80171240  0.19118466    -0.37860
C685        C  0.64605301  0.25399739  0.12231938    -0.04530
C686        C  0.66501801  0.24313744  0.15633408    -0.01640
C687        C  0.65283951  0.19636061  0.17458870     0.03350
C688        C  0.62168353  0.16010553  0.15936287    -0.04530
C689        C  0.60553853  0.16916098  0.12459085    -0.01630
C690        C  0.61598750  0.21651535  0.10683356     0.03340
C691        C  0.69505930  0.28136232  0.17376549     0.37990
C692        C  0.57706772  0.12989342  0.10681068     0.37980
C693        C  0.59432064  0.22688110  0.07295370     0.36410
C694        C  0.67132246  0.18661975  0.20951441     0.36410
N695        N  0.57596097  0.23550348  0.04642718    -0.38410
N696        N  0.68698620  0.17971552  0.23722998    -0.38410
N697        N  0.55521448  0.09954819  0.09094401    -0.37860
N698        N  0.71944668  0.31142368  0.18756090    -0.37860
C699        C  0.76222372  0.38370525  0.10485171    -0.04530
C700        C  0.75544756  0.41956106  0.13313670    -0.01640
C701        C  0.79090719  0.43087082  0.15716742     0.03350
C702        C  0.83511696  0.40848279  0.15238626    -0.04530
C703        C  0.84091992  0.37023507  0.12490227    -0.01630
C704        C  0.80471665  0.35827605  0.10127778     0.03340
C705        C  0.71037800  0.44136248  0.13969182     0.37990
C706        C  0.88256151  0.33946778  0.12232163     0.37980
C707        C  0.81035295  0.31742839  0.07433704     0.36410
C708        C  0.77942134  0.46240235  0.18813525     0.36410
N709        N  0.81475588  0.28435115  0.05319144    -0.38410
N710        N  0.76930192  0.48638831  0.21300726    -0.38410
N711        N  0.91542541  0.31428604  0.12035756    -0.37860
N712        N  0.67459858  0.45843564  0.14517699    -0.37860
C713        C  0.15462441  0.61135351  0.15505598    -0.04530
C714        C  0.15032309  0.62593599  0.11900785    -0.01640
C715        C  0.18919047  0.64013508  0.09965439     0.03350
C716        C  0.23287020  0.63491184  0.11477632    -0.04530
C717        C  0.23756820  0.61707084  0.14964100    -0.01630
C718        C  0.19902918  0.60966552  0.17044598     0.03340
C719        C  0.10661261  0.62606880  0.10108160     0.37990
C720        C  0.28253975  0.60664526  0.16425220     0.37980
C721        C  0.20587012  0.60386278  0.20820034     0.36410
C722        C  0.18436373  0.66105034  0.06429220     0.36410
N723        N  0.21188967  0.59995406  0.23827218    -0.38410
N724        N  0.18056681  0.67809791  0.03616405    -0.38410
N725        N  0.31825762  0.59695057  0.17561785    -0.37860
N726        N  0.07249779  0.62656895  0.08558238    -0.37860
C727        C  0.33538750  0.78682740  0.12207956    -0.04530
C728        C  0.33062680  0.83546984  0.10383680    -0.01640
C729        C  0.33312808  0.88487096  0.12224910     0.03350
C730        C  0.33942849  0.88654989  0.15927535    -0.04530
C731        C  0.33955515  0.83808581  0.17786059    -0.01630
C732        C  0.33978782  0.78874765  0.15936159     0.03340
C733        C  0.32346541  0.83482753  0.06603626     0.37990
C734        C  0.34154716  0.83882948  0.21609185     0.37980
C735        C  0.34724868  0.74001431  0.17882672     0.36410
C736        C  0.33004115  0.93470443  0.10318977     0.36410
N737        N  0.35436647  0.70193622  0.19498973    -0.38410
N738        N  0.32763912  0.97489405  0.08849481    -0.38410
N739        N  0.34291976  0.83903203  0.24658644    -0.37860
N740        N  0.31776549  0.83459050  0.03580945    -0.37860
C741        C  0.35480869  0.13200020  0.83808880    -0.04530
C742        C  0.37714831  0.15195988  0.86855802    -0.01640
C743        C  0.37188583  0.20551439  0.87832155     0.03350
C744        C  0.33158136  0.23326029  0.86876992    -0.04530
C745        C  0.30121359  0.20575262  0.84421049    -0.01630
C746        C  0.31468739  0.15737160  0.82741513     0.03340
C747        C  0.40786992  0.11842752  0.88879451     0.37990
C748        C  0.25679146  0.22587204  0.83414767     0.37980
C749        C  0.28683632  0.13303492  0.79984201     0.36410
C750        C  0.41243194  0.23174612  0.89149930     0.36410
N751        N  0.26425639  0.11334978  0.77816915    -0.38410
N752        N  0.44691898  0.25097587  0.89921204    -0.38410
N753        N  0.22019817  0.23831272  0.82623238    -0.37860
N754        N  0.43138403  0.09223317  0.90618178    -0.37860
C755        C  0.34604376  0.88090959  0.82463253    -0.04530
C756        C  0.34617124  0.89002589  0.86146705    -0.01640
C757        C  0.33990238  0.84720655  0.88473846     0.03350
C758        C  0.33200241  0.79556291  0.87122680    -0.04530
C759        C  0.32859823  0.78718789  0.83434763    -0.01630
C760        C  0.33643478  0.82942690  0.81117606     0.03340
C761        C  0.35841160  0.94240765  0.87523840     0.37990
C762        C  0.31667849  0.73490067  0.82009560     0.37980
C763        C  0.34026075  0.81809189  0.77373524     0.36410
C764        C  0.34422399  0.85561752  0.92242098     0.36410
N765        N  0.34371584  0.80822367  0.74404192    -0.38410
N766        N  0.34828244  0.86243542  0.95249249    -0.38410
N767        N  0.30612340  0.69364449  0.80875872    -0.37860
N768        N  0.36880036  0.98417541  0.88578070    -0.37860
C769        C  0.63358151  0.86283240  0.81986355    -0.04530
C770        C  0.66492363  0.87663239  0.84662439    -0.01640
C771        C  0.67629863  0.83919876  0.87300778     0.03350
C772        C  0.65548519  0.78796795  0.87288362    -0.04530
C773        C  0.62634850  0.77346573  0.84440976    -0.01630
C774        C  0.61730206  0.80980354  0.81743637     0.03340
C775        C  0.68542660  0.92905823  0.84679115     0.37990
C776        C  0.60621151  0.72051537  0.84192138     0.37980
C777        C  0.58945744  0.79289390  0.78740819     0.36410
C778        C  0.70966190  0.85341812  0.89996305     0.36410
N779        N  0.56742534  0.77827882  0.76374763    -0.38410
N780        N  0.73690811  0.86490613  0.92097345    -0.38410
N781        N  0.58986625  0.67857482  0.84008844    -0.37860
N782        N  0.70239336  0.97063334  0.84660307    -0.37860
C783        C  0.65120774  0.10245437  0.65725650    -0.04530
C784        C  0.69034437  0.12060727  0.67569738    -0.01640
C785        C  0.73082507  0.12934270  0.65770932     0.03350
C786        C  0.73115462  0.12755758  0.62040573    -0.04530
C787        C  0.69186656  0.11038922  0.60173711    -0.01630
C788        C  0.65251971  0.09588807  0.62025734     0.03340
C789        C  0.68877695  0.13240460  0.71320731     0.37990
C790        C  0.69156094  0.10847485  0.56357042     0.37980
C791        C  0.61424911  0.07230550  0.60138946     0.36410
C792        C  0.77234906  0.13965644  0.67789996     0.36410
N793        N  0.58393796  0.05293912  0.58633604    -0.38410
N794        N  0.80533477  0.14801413  0.69398342    -0.38410
N795        N  0.69134166  0.10701823  0.53308343    -0.37860
N796        N  0.68777217  0.14270575  0.74296357    -0.37860
C797        C  0.65079757  0.90592514  0.65618170    -0.04530
C798        C  0.69488855  0.92072415  0.66947978    -0.01640
C799        C  0.73247251  0.92011674  0.64738187     0.03350
C800        C  0.72994190  0.89333072  0.61489294    -0.04530
C801        C  0.68783319  0.87382251  0.60231895    -0.01630
C802        C  0.64792960  0.88195418  0.62213483     0.03340
C803        C  0.70369742  0.93253329  0.70658104     0.37990
C804        C  0.68600816  0.84499366  0.56907174     0.37980
C805        C  0.60484958  0.86345131  0.60778795     0.36410
C806        C  0.77449968  0.94616766  0.65850230     0.36410
N807        N  0.57061168  0.84827040  0.59618298    -0.38410
N808        N  0.80745056  0.96814641  0.66710111    -0.38410
N809        N  0.68500192  0.82199186  0.54250271    -0.37860
N810        N  0.71126196  0.94137872  0.73608211    -0.37860
C811        C  0.24010345  0.90649367  0.62687391    -0.04530
C812        C  0.24330108  0.91877430  0.66302678    -0.01640
C813        C  0.28449047  0.91162840  0.68110971     0.03350
C814        C  0.32569259  0.90568038  0.66237489    -0.04530
C815        C  0.32308725  0.89548096  0.62570193    -0.01630
C816        C  0.28014972  0.89372189  0.60832515     0.03340
C817        C  0.20337087  0.93609144  0.68225310     0.37990
C818        C  0.36396184  0.88532156  0.60596119     0.37980
C819        C  0.27698129  0.87647822  0.57182343     0.36410
C820        C  0.28330671  0.90977592  0.71931238     0.36410
N821        N  0.27417572  0.86236506  0.54275863    -0.38410
N822        N  0.27978282  0.90911446  0.74961647    -0.38410
N823        N  0.39647869  0.87666580  0.59012261    -0.37860
N824        N  0.17186720  0.94998916  0.69775920    -0.37860
C825        C  0.25787084  0.13269431  0.60989654    -0.04530
C826        C  0.25536716  0.09089008  0.63424515    -0.01640
C827        C  0.29090086  0.08267634  0.65876537     0.03350
C828        C  0.33294479  0.11063929  0.65599468    -0.04530
C829        C  0.33594806  0.15133796  0.63036457    -0.01630
C830        C  0.29804214  0.16337451  0.60836307     0.03340
C831        C  0.21380804  0.05978311  0.63642867     0.37990
C832        C  0.37610506  0.18463857  0.62880601     0.37980
C833        C  0.29924324  0.20945745  0.58556231     0.36410
C834        C  0.28083044  0.05055457  0.68921496     0.36410
N835        N  0.29990593  0.24669926  0.56777571    -0.38410
N836        N  0.27178535  0.02752453  0.71442047    -0.38410
N837        N  0.40789834  0.21164606  0.62762164    -0.37860
N838        N  0.18028527  0.03583741  0.63751398    -0.37860
C839        C  0.65057983  0.23475125  0.87211321    -0.04530
C840        C  0.60813918  0.23723329  0.85465536    -0.01640
C841        C  0.59171232  0.19302685  0.83559607     0.03350
C842        C  0.62069487  0.14942628  0.82652841    -0.04530
C843        C  0.66520074  0.14950786  0.84046242    -0.01630
C844        C  0.67842359  0.18879601  0.86580880     0.03340
C845        C  0.58057864  0.28563564  0.85516901     0.37990
C846        C  0.69722435  0.10915319  0.82912175     0.37980
C847        C  0.72014782  0.18049650  0.88583090     0.36410
C848        C  0.54337872  0.19372688  0.82861715     0.36410
N849        N  0.75364703  0.17350148  0.90146907    -0.38410
N850        N  0.50452379  0.20049685  0.82725119    -0.38410
N851        N  0.72335342  0.07814693  0.81922136    -0.37860
N852        N  0.55794361  0.32342951  0.85538658    -0.37860
C853        C  0.12864768  0.35022413  0.83636678    -0.04530
C854        C  0.17052892  0.35570703  0.81875233    -0.01640
C855        C  0.21235667  0.35898539  0.83784473     0.03350
C856        C  0.21360651  0.35833135  0.87524298    -0.04530
C857        C  0.17221469  0.34968165  0.89268743    -0.01630
C858        C  0.13033638  0.34592539  0.87360064     0.03340
C859        C  0.17049281  0.36315915  0.78090418     0.37990
C860        C  0.17271919  0.34419642  0.93049725     0.37980
C861        C  0.08794389  0.34334850  0.89253858     0.36410
C862        C  0.25470155  0.35996790  0.81871043     0.36410
N863        N  0.05386187  0.34207983  0.90731238    -0.38410
N864        N  0.28854042  0.35928417  0.80357651    -0.38410
N865        N  0.17303724  0.33909289  0.96072063    -0.37860
N866        N  0.17117657  0.36966326  0.75076668    -0.37860
C867        C  0.11813918  0.66443260  0.85416767    -0.04530
C868        C  0.13638130  0.63590360  0.88364836    -0.01640
C869        C  0.18303834  0.63844966  0.89303127     0.03350
C870        C  0.21100095  0.67928729  0.87982165    -0.04530
C871        C  0.18947303  0.71521495  0.85466500    -0.01630
C872        C  0.14463799  0.70581685  0.84098526     0.03340
C873        C  0.10729469  0.60157713  0.90415164     0.37990
C874        C  0.21164493  0.76252574  0.84161376     0.37980
C875        C  0.12560181  0.73913397  0.81336023     0.36410
C876        C  0.20140047  0.59660951  0.91523055     0.36410
N877        N  0.11038478  0.76608725  0.79155990    -0.38410
N878        N  0.21506631  0.56123126  0.93170892    -0.38410
N879        N  0.22634620  0.80223798  0.83143960    -0.37860
N880        N  0.08506975  0.57401895  0.92104245    -0.37860
C881        C  0.77462830  0.66502353  0.87378582    -0.04530
C882        C  0.81645720  0.66371879  0.89245461    -0.01640
C883        C  0.85838081  0.66670225  0.87445053     0.03350
C884        C  0.85970512  0.67024597  0.83717044    -0.04530
C885        C  0.81776508  0.67403533  0.81860946    -0.01630
C886        C  0.77588028  0.67192830  0.83663676     0.03340
C887        C  0.81643924  0.65870202  0.93037535     0.37990
C888        C  0.81745869  0.67513343  0.78039178     0.37980
C889        C  0.73362991  0.67777066  0.81679011     0.36410
C890        C  0.90080566  0.66004240  0.89389755     0.36410
N891        N  0.70000967  0.68312478  0.80101768    -0.38410
N892        N  0.93491973  0.65399948  0.90888421    -0.38410
N893        N  0.81649136  0.67550280  0.74989770    -0.37860
N894        N  0.81665125  0.65434469  0.96068538    -0.37860
C895        C  0.77191027  0.36258982  0.86820487    -0.04530
C896        C  0.77826907  0.34732901  0.83218178    -0.01640
C897        C  0.82237468  0.33961688  0.81832071     0.03350
C898        C  0.86141150  0.35003910  0.83912526    -0.04530
C899        C  0.85521944  0.36195990  0.87545409    -0.01630
C900        C  0.81115868  0.36905097  0.88963770     0.03340
C901        C  0.73901771  0.33783782  0.80934104     0.37990
C902        C  0.89506499  0.37187750  0.89750083     0.37980
C903        C  0.80627871  0.38343591  0.92641315     0.36410
C904        C  0.82787541  0.32320636  0.78187519     0.36410
N905        N  0.80244117  0.39540579  0.95573434    -0.38410
N906        N  0.83233696  0.30952604  0.75292039    -0.38410
N907        N  0.92709644  0.38006453  0.91474620    -0.37860
N908        N  0.70771844  0.32926116  0.79136453    -0.37860
C909        C  0.89989835  0.69145173  0.67499115    -0.04530
C910        C  0.89025827  0.74231255  0.68988831    -0.01640
C911        C  0.87025697  0.78275550  0.66916637     0.03350
C912        C  0.86033628  0.77365238  0.63313126    -0.04530
C913        C  0.87044539  0.72382543  0.61789798    -0.01630
C914        C  0.88794011  0.68214596  0.63885816     0.03340
C915        C  0.89839210  0.75289054  0.72711775     0.37990
C916        C  0.86277616  0.71546393  0.58034863     0.37980
C917        C  0.89303253  0.63011084  0.62234062     0.36410
C918        C  0.86059360  0.83421252  0.68513649     0.36410
N919        N  0.89639903  0.58938590  0.60802560    -0.38410
N920        N  0.85333592  0.87473405  0.69874132    -0.38410
N921        N  0.85725795  0.70922894  0.55033757    -0.37860
N922        N  0.90454039  0.76159928  0.75680568    -0.37860
C923        C  0.08843269  0.68711999  0.67761527    -0.04530
C924        C  0.06077995  0.70922098  0.65107031    -0.01640
C925        C  0.07517001  0.75421982  0.63229134     0.03350
C926        C  0.12149712  0.77032613  0.63402180    -0.04530
C927        C  0.15148586  0.74021022  0.65647141    -0.01630
C928        C  0.13397439  0.70295125  0.68042952     0.03340
C929        C  0.01996004  0.68149637  0.64010054     0.37990
C930        C  0.20054632  0.74543122  0.65473622     0.37980
C931        C  0.16281695  0.68087415  0.70800361     0.36410
C932        C  0.04080315  0.78428135  0.61332958     0.36410
N933        N  0.18560524  0.66380736  0.73032129    -0.38410
N934        N  0.01237943  0.80745891  0.59866212    -0.38410
N935        N  0.23962345  0.75020796  0.65391024    -0.37860
N936        N  0.98925944  0.65701434  0.62984155    -0.37860
C937        C  0.12827700  0.24848308  0.63434667    -0.04530
C938        C  0.10378206  0.29183352  0.62005329    -0.01640
C939        C  0.08366053  0.32972104  0.64251762     0.03350
C940        C  0.08801978  0.32477822  0.67947439    -0.04530
C941        C  0.10940628  0.27912639  0.69375650    -0.01630
C942        C  0.13000205  0.24143846  0.67128064     0.03340
C943        C  0.09865661  0.29714791  0.58215130     0.37990
C944        C  0.10946124  0.26991787  0.73141534     0.37980
C945        C  0.15151411  0.19433292  0.68613586     0.36410
C946        C  0.05568357  0.37171738  0.62748788     0.36410
N947        N  0.16873521  0.15679837  0.69786980    -0.38410
N948        N  0.03285583  0.40452781  0.61528475    -0.38410
N949        N  0.10932179  0.26148960  0.76134431    -0.37860
N950        N  0.09404892  0.30084930  0.55193522    -0.37860
C951        C  0.85467142  0.25632868  0.62523162    -0.04530
C952        C  0.83958467  0.30931663  0.62538082    -0.01640
C953        C  0.85961329  0.34688247  0.64857273     0.03350
C954        C  0.89651248  0.33198788  0.67142742    -0.04530
C955        C  0.91248376  0.27838491  0.66999230    -0.01630
C956        C  0.89082052  0.24069538  0.64773575     0.03340
C957        C  0.80317559  0.32514393  0.60137273     0.37990
C958        C  0.95185577  0.26116984  0.69045721     0.37980
C959        C  0.90485868  0.18506798  0.64888041     0.36410
C960        C  0.84089143  0.40045181  0.64839559     0.36410
N961        N  0.91578331  0.14072835  0.64988769    -0.38410
N962        N  0.82533618  0.44281930  0.64728545    -0.38410
N963        N  0.98318835  0.24669156  0.70651326    -0.37860
N964        N  0.77420056  0.33764458  0.58221848    -0.37860
loop_ 
_geom_bond_atom_site_label_1 
_geom_bond_atom_site_label_2 
_geom_bond_distance 
_geom_bond_site_symmetry_2 
_ccdc_geom_bond_type 
O1          Zr13   2.322       .  S
O1            C3   1.264       .  A
O2          Zr39   2.531       .  S
O2            C3   1.307       .  A
C3          C898   1.490       .  S
O4          Zr16   2.437       .  S
O4            C6   1.287       .  A
O5          Zr40   2.450       .  S
O5            C6   1.295       .  A
C6          C909   1.506       .  S
O7          Zr16   2.425       .  S
O7            C9   1.285       .  A
O8          Zr39   2.439       .  S
O8            C9   1.291       .  A
C9          C954   1.504       .  S
O10         Zr13   2.324       .  S
O10          C12   1.265       .  A
O11         Zr40   2.543       .  S
O11          C12   1.310       .  A
C12         C884   1.489       .  S
Zr13         O14   2.437       .  S
Zr13         O15   2.431       .  S
Zr13         O19   2.345       .  S
Zr13         O20   2.345       .  S
Zr13         O43   2.357       .  S
Zr13         O45   2.359       .  S
O14          H57   0.991       .  S
O15          H56   0.989       .  S
O15          H60   0.990       .  S
Zr16         O17   2.436       .  S
Zr16         O18   2.432       .  S
Zr16         O20   2.357       .  S
Zr16         O19   2.367       .  S
Zr16         O44   2.356       .  S
Zr16         O46   2.357       .  S
O17          H58   0.990       .  S
O17          H61   0.991       .  S
O18          H51   0.989       .  S
O19         Zr39   2.390       .  S
O20         Zr40   2.389       .  S
O20          H47   0.969       .  S
O21         Zr33   2.315       .  S
O21          C23   1.260       .  A
O22         Zr40   2.552   1_455  S
O22          C23   1.310       .  A
C23         C867   1.520       .  S
O24         Zr36   2.468       .  S
O24          C26   1.295       .  A
O25         Zr39   2.413   1_455  S
O25          C26   1.287       .  A
C26         C940   1.482       .  S
O27         Zr36   2.454       .  S
O27          C29   1.290       .  A
O28         Zr40   2.435   1_455  S
O28          C29   1.291       .  A
C29         C923   1.482       .  S
O30         Zr33   2.319       .  S
O30          C32   1.262       .  A
O31         Zr39   2.544   1_455  S
O31          C32   1.309       .  A
C32         C853   1.492       .  S
Zr33         O34   2.444       .  S
Zr33         O35   2.428       .  S
Zr33         O41   2.356       .  S
Zr33         O42   2.340       .  S
Zr33         O45   2.345   1_455  S
Zr33         O43   2.352   1_455  S
O34          H54   0.989       .  S
O34          H59   0.993       .  S
O35          H55   0.989       .  S
Zr36         O37   2.434       .  S
Zr36         O38   2.435       .  S
Zr36         O42   2.362       .  S
Zr36         O41   2.373       .  S
Zr36         O46   2.364   1_455  S
Zr36         O44   2.359   1_455  S
O37          H53   0.991       .  S
O38          H52   0.990       .  S
O38          H62   0.990       .  S
Zr39         O42   2.380   1_655  S
Zr39         O44   2.421       .  S
Zr39         O45   2.366       .  S
Zr40         O41   2.401   1_655  S
Zr40         O43   2.375       .  S
Zr40         O46   2.416       .  S
O41          H49   0.970       .  S
O44          H48   0.967       .  S
O45          H50   0.971       .  S
C63         C895   1.519       .  S
C63          C64   1.386       .  A
C63          C68   1.439       .  A
C64          C65   1.381       .  A
C64          H69   1.081       .  S
C65         C839   1.510       .  S
C65          C66   1.421       .  A
C66          C67   1.419       .  A
C66          H70   1.083       .  S
C67         C205   1.542       .  S
C67          C68   1.441       .  A
C68          H71   1.082       .  S
O72         Zr84   2.359       .  S
O72          C74   1.258       .  A
O73        Zr110   2.518       .  S
O73          C74   1.297       .  A
C74         C842   1.497       .  S
O75         Zr87   2.356       .  S
O75          C77   1.270       .  A
O76        Zr111   2.450   1_565  S
O76          C77   1.289       .  A
C77         C755   1.461       .  S
O78         Zr87   2.358       .  S
O78          C80   1.273       .  A
O79        Zr110   2.463   1_565  S
O79          C80   1.292       .  A
C80         C769   1.474       .  S
O81         Zr84   2.344       .  S
O81          C83   1.271       .  A
O82        Zr111   2.496       .  S
O82          C83   1.298       .  A
C83         C741   1.496       .  S
Zr84         O85   2.429       .  S
Zr84         O86   2.458       .  S
Zr84         O90   2.353       .  S
Zr84         O91   2.344       .  S
Zr84        O114   2.340       .  S
Zr84        O116   2.350       .  S
O85         H128   0.991       .  S
O86         H127   0.988       .  S
O86         H131   0.990       .  S
Zr87         O88   2.435       .  S
Zr87         O89   2.434       .  S
Zr87         O91   2.357   1_565  S
Zr87         O90   2.354   1_565  S
Zr87        O115   2.344       .  S
Zr87        O117   2.340       .  S
O88         H129   0.991       .  S
O88         H132   0.989       .  S
O89         H122   0.991       .  S
O90        Zr110   2.338       .  S
O91        Zr111   2.338       .  S
O91         H118   0.972       .  S
O92        Zr104   2.484       .  S
O92          C94   1.296       .  A
O93        Zr111   2.398       .  S
O93          C94   1.281       .  A
C94         C828   1.510       .  S
O95        Zr107   2.503       .  S
O95          C97   1.300       .  A
O96        Zr110   2.354   1_565  S
O96          C97   1.273       .  A
C97         C797   1.509       .  S
O98        Zr107   2.508       .  S
O98         C100   1.301       .  A
O99        Zr111   2.351   1_565  S
O99         C100   1.276       .  A
C100        C814   1.494       .  S
O101       Zr104   2.476       .  S
O101        C103   1.295       .  A
O102       Zr110   2.377       .  S
O102        C103   1.281       .  A
C103        C783   1.480       .  S
Zr104       O105   2.435       .  S
Zr104       O106   2.435       .  S
Zr104       O112   2.363       .  S
Zr104       O113   2.359       .  S
Zr104       O116   2.392       .  S
Zr104       O114   2.392       .  S
O105        H125   0.990       .  S
O105        H130   0.990       .  S
O106        H126   0.990       .  S
Zr107       O108   2.434       .  S
Zr107       O109   2.437       .  S
Zr107       O113   2.368   1_565  S
Zr107       O112   2.368   1_565  S
Zr107       O117   2.385       .  S
Zr107       O115   2.384       .  S
O108        H124   0.990       .  S
O109        H123   0.988       .  S
O109        H133   0.993       .  S
Zr110       O113   2.405       .  S
Zr110       O115   2.404   1_545  S
Zr110       O116   2.367       .  S
Zr111       O112   2.416       .  S
Zr111       O114   2.355       .  S
Zr111       O117   2.395   1_545  S
O112        H120   0.970       .  S
O115        H119   0.968       .  S
O116        H121   0.968       .  S
C134        C870   1.549       .  S
C134        C135   1.395       .  A
C134        C139   1.451       .  A
C135        C136   1.387       .  A
C135        H140   1.080       .  S
C136        C758   1.479       .  S
C136        C137   1.403       .  A
C137        C138   1.410       .  A
C137        H141   1.083       .  S
C138        C225   1.529       .  S
C138        C139   1.439       .  A
C139        H142   1.077       .  S
C143        C881   1.513       .  S
C143        C144   1.387       .  A
C143        C148   1.435       .  A
C144        C145   1.385       .  A
C144        H149   1.086       .  S
C145        C772   1.488       .  S
C145        C146   1.409       .  A
C146        C147   1.413       .  A
C146        H150   1.084       .  S
C147        C222   1.526       .  S
C147        C148   1.439       .  A
C148        H151   1.082       .  S
C152        C856   1.515       .  S
C152        C153   1.389       .  A
C152        C157   1.431       .  A
C153        C154   1.395       .  A
C153        H158   1.080       .  S
C154        C744   1.535       .  S
C154        C155   1.432       .  A
C155        C156   1.425       .  A
C155        H159   1.071       .  S
C156        C202   1.544       .  S
C156        C157   1.432       .  A
C157        H160   1.082       .  S
C161        C825   1.488       .  S
C161        C162   1.401       .  A
C161        C166   1.417       .  A
C162        C163   1.392       .  A
C162        H167   1.085       .  S
C163        C937   1.485       .  S
C163        C164   1.391       .  A
C164        C165   1.408       .  A
C164        H168   1.084       .  S
C165        C457   1.488       .  S
C165        C166   1.411       .  A
C166        H169   1.083       .  S
C170        C811   1.483       .  S
C170        C171   1.397       .  A
C170        C175   1.403       .  A
C171        C172   1.392       .  A
C171        H176   1.078       .  S
C172        C926   1.521       .  S
C172        C173   1.413       .  A
C173        C174   1.422       .  A
C173        H177   1.079       .  S
C174        C463   1.486       .  S
C174        C175   1.405       .  A
C175        H178   1.083       .  S
C179        C786   1.489       .  S
C179        C180   1.403       .  A
C179        C184   1.412       .  A
C180        C181   1.388       .  A
C180        H185   1.085       .  S
C181        C951   1.478       .  S
C181        C182   1.386       .  A
C182        C183   1.404       .  A
C182        H186   1.085       .  S
C183        C466   1.472       .  S
C183        C184   1.409       .  A
C184        H187   1.083       .  S
C188        C800   1.476       .  S
C188        C189   1.402       .  A
C188        C193   1.409       .  A
C189        C190   1.389       .  A
C189        H194   1.085       .  S
C190        C912   1.488       .  S
C190        C191   1.393       .  A
C191        C192   1.417       .  A
C191        H195   1.084       .  S
C192        C460   1.486       .  S
C192        C193   1.408       .  A
C193        H196   1.083       .  S
O197       Zr209   2.429       .  S
O197        C199   1.286       .  A
O198       Zr235   2.467   1_554  S
O198        C199   1.296       .  A
C199        C270   1.495       .  S
O200       Zr212   2.514       .  S
O200        C202   1.304       .  A
O201       Zr236   2.506       .  S
O201        C202   1.303       .  A
O203       Zr212   2.526       .  S
O203        C205   1.307       .  A
O204       Zr235   2.491       .  S
O204        C205   1.297       .  A
O206       Zr209   2.444       .  S
O206        C208   1.288       .  A
O207       Zr236   2.494   1_554  S
O207        C208   1.302       .  A
C208        C412   1.507       .  S
Zr209       O210   2.435       .  S
Zr209       O211   2.434       .  S
Zr209       O215   2.374   1_554  S
Zr209       O216   2.371   1_554  S
Zr209       O239   2.376       .  S
Zr209       O241   2.382       .  S
O210        H253   0.991       .  S
O211        H252   0.990       .  S
O211        H256   0.990       .  S
Zr212       O213   2.432       .  S
Zr212       O214   2.432       .  S
Zr212       O216   2.381       .  S
Zr212       O215   2.369       .  S
Zr212       O240   2.392       .  S
Zr212       O242   2.395       .  S
O213        H254   0.988       .  S
O213        H257   0.992       .  S
O214        H247   0.990       .  S
O215       Zr235   2.393       .  S
O216       Zr236   2.403       .  S
O216        H243   0.968       .  S
O217       Zr229   2.440       .  S
O217        C219   1.287       .  A
O218       Zr236   2.510   1_554  S
O218        C219   1.305       .  A
C219        C261   1.512       .  S
O220       Zr232   2.521       .  S
O220        C222   1.306       .  A
O221       Zr235   2.461       .  S
O221        C222   1.292       .  A
O223       Zr232   2.514       .  S
O223        C225   1.305       .  A
O224       Zr236   2.481       .  S
O224        C225   1.297       .  A
O226       Zr229   2.430       .  S
O226        C228   1.287       .  A
O227       Zr235   2.483   1_554  S
O227        C228   1.298       .  A
C228        C279   1.499       .  S
Zr229       O230   2.438       .  S
Zr229       O231   2.434       .  S
Zr229       O237   2.369   1_554  S
Zr229       O238   2.370   1_554  S
Zr229       O241   2.379       .  S
Zr229       O239   2.379       .  S
O230        H250   0.989       .  S
O230        H255   0.992       .  S
O231        H251   0.990       .  S
Zr232       O233   2.435       .  S
Zr232       O234   2.431       .  S
Zr232       O238   2.368       .  S
Zr232       O237   2.381       .  S
Zr232       O242   2.390       .  S
Zr232       O240   2.392       .  S
O233        H249   0.992       .  S
O234        H248   0.990       .  S
O234        H258   0.990       .  S
Zr235       O238   2.398       .  S
Zr235       O240   2.413       .  S
Zr235       O241   2.406   1_556  S
Zr236       O237   2.408       .  S
Zr236       O239   2.397   1_556  S
Zr236       O242   2.416       .  S
O237        H245   0.967       .  S
O240        H244   0.972       .  S
O241        H246   0.970       .  S
C259        C716   1.483       .  S
C259        C260   1.408       .  A
C259        C264   1.393       .  A
C260        C261   1.413       .  A
C260        H265   1.083       .  S
C261        C262   1.433       .  A
C262        C263   1.421       .  A
C262        H266   1.083       .  S
C263        C727   1.507       .  S
C263        C264   1.390       .  A
C264        H267   1.086       .  S
C268        C699   1.481       .  S
C268        C269   1.408       .  A
C268        C273   1.393       .  A
C269        C270   1.407       .  A
C269        H274   1.083       .  S
C270        C271   1.418       .  A
C271        C272   1.412       .  A
C271        H275   1.082       .  S
C272        C685   1.502       .  S
C272        C273   1.392       .  A
C273        H276   1.084       .  S
C277        C657   1.477       .  S
C277        C278   1.408       .  A
C277        C282   1.395       .  A
C278        C279   1.408       .  A
C278        H283   1.083       .  S
C279        C280   1.420       .  A
C280        C281   1.415       .  A
C280        H284   1.083       .  S
C281        C674   1.504       .  S
C281        C282   1.390       .  A
C282        H285   1.084       .  S
O286       Zr298   2.388       .  S
O286        C288   1.271       .  A
O287       Zr324   2.490   1_565  S
O287        C288   1.295       .  A
C288        C730   1.491       .  S
O289       Zr301   2.465       .  S
O289        C291   1.292       .  A
O290       Zr325   2.387   1_565  S
O290        C291   1.282       .  A
C291        C604   1.497       .  S
O292       Zr301   2.448       .  S
O292        C294   1.290       .  A
O293       Zr324   2.395   1_565  S
O293        C294   1.284       .  A
C294        C646   1.488       .  S
O295       Zr298   2.390       .  S
O295        C297   1.277       .  A
O296       Zr325   2.485   1_565  S
O296        C297   1.297       .  A
C297        C671   1.491       .  S
Zr298       O299   2.428       .  S
Zr298       O300   2.438       .  S
Zr298       O304   2.338       .  S
Zr298       O305   2.358       .  S
Zr298       O328   2.373   1_565  S
Zr298       O330   2.374   1_565  S
O299        H342   0.990       .  S
O300        H341   0.992       .  S
O300        H345   0.989       .  S
Zr301       O302   2.435       .  S
Zr301       O303   2.432       .  S
Zr301       O305   2.370       .  S
Zr301       O304   2.380       .  S
Zr301       O329   2.361   1_565  S
Zr301       O331   2.354   1_565  S
O302        H343   0.988       .  S
O302        H346   0.993       .  S
O303        H336   0.988       .  S
O304       Zr324   2.378   1_565  S
O305       Zr325   2.391   1_565  S
O305        H332   0.968       .  S
O306       Zr318   2.381       .  S
O306        C308   1.275       .  A
O307       Zr325   2.490       .  S
O307        C308   1.298       .  A
C308        C688   1.482       .  S
O309       Zr321   2.447       .  S
O309        C311   1.289       .  A
O310       Zr324   2.388       .  S
O310        C311   1.282       .  A
C311        C629   1.457       .  S
O312       Zr321   2.463       .  S
O312        C314   1.292       .  A
O313       Zr325   2.400       .  S
O313        C314   1.283       .  A
C314        C615   1.512       .  S
O315       Zr318   2.399       .  S
O315        C317   1.275       .  A
O316       Zr324   2.466       .  S
O316        C317   1.292       .  A
C317        C590   1.481       .  S
Zr318       O319   2.439       .  S
Zr318       O320   2.434       .  S
Zr318       O326   2.366       .  S
Zr318       O327   2.362       .  S
Zr318       O330   2.343       .  S
Zr318       O328   2.351       .  S
O319        H339   0.990       .  S
O319        H344   0.991       .  S
O320        H340   0.989       .  S
Zr321       O322   2.434       .  S
Zr321       O323   2.433       .  S
Zr321       O327   2.373       .  S
Zr321       O326   2.367       .  S
Zr321       O331   2.358       .  S
Zr321       O329   2.354       .  S
O322        H338   0.991       .  S
O323        H337   0.990       .  S
O323        H347   0.989       .  S
Zr324       O327   2.390       .  S
Zr324       O329   2.402       .  S
Zr324       O330   2.361       .  S
Zr325       O326   2.390       .  S
Zr325       O328   2.352       .  S
Zr325       O331   2.388       .  S
O326        H334   0.967       .  S
O329        H333   0.967       .  S
O330        H335   0.972       .  S
O348       Zr360   2.481   1_455  S
O348        C350   1.296       .  A
O349       Zr386   2.407       .  S
O349        C350   1.284       .  A
C350        C713   1.506       .  S
O351       Zr363   2.381       .  S
O351        C353   1.276       .  A
O352       Zr387   2.461       .  S
O352        C353   1.293       .  A
C353        C548   1.473       .  S
O354       Zr363   2.376   1_455  S
O354        C356   1.275       .  A
O355       Zr386   2.443       .  S
O355        C356   1.287       .  A
C356        C531   1.461       .  S
O357       Zr360   2.487       .  S
O357        C359   1.298       .  A
O358       Zr387   2.372       .  S
O358        C359   1.278       .  A
C359        C660   1.499       .  S
Zr360       O361   2.433       .  S
Zr360       O362   2.429       .  S
Zr360       O366   2.387   1_655  S
Zr360       O367   2.373       .  S
Zr360       O390   2.361       .  S
Zr360       O392   2.366   1_655  S
O361        H404   0.991   1_655  S
O362        H403   0.989   1_655  S
O362        H407   0.988       .  S
Zr363       O364   2.438   1_655  S
Zr363       O365   2.431       .  S
Zr363       O367   2.349       .  S
Zr363       O366   2.361   1_655  S
Zr363       O391   2.348   1_655  S
Zr363       O393   2.369       .  S
O364        H405   0.989   1_455  S
O364        H408   0.992       .  S
O365        H398   0.990   1_655  S
O366       Zr386   2.399       .  S
O367       Zr387   2.390       .  S
O367        H394   0.969       .  S
O368       Zr380   2.466       .  S
O368        C370   1.292       .  A
O369       Zr387   2.378       .  S
O369        C370   1.277       .  A
C370        C702   1.506       .  S
O371       Zr383   2.302   1_455  S
O371        C373   1.236       .  A
O372       Zr386   2.535       .  S
O372        C373   1.275       .  A
C373        C573   1.513       .  S
O374       Zr383   2.347       .  S
O374        C376   1.274       .  A
O375       Zr387   2.494       .  S
O375        C376   1.298       .  A
C376        C559   1.480       .  S
O377       Zr380   2.470   1_455  S
O377        C379   1.294       .  A
O378       Zr386   2.390       .  S
O378        C379   1.282       .  A
C379        C520   1.491       .  S
Zr380       O381   2.435       .  S
Zr380       O382   2.429       .  S
Zr380       O388   2.374       .  S
Zr380       O389   2.380   1_655  S
Zr380       O392   2.367   1_655  S
Zr380       O390   2.363       .  S
O381        H401   0.988       .  S
O381        H406   0.993   1_655  S
O382        H402   0.989       .  S
Zr383       O384   2.441       .  S
Zr383       O385   2.445       .  S
Zr383       O389   2.366   1_655  S
Zr383       O388   2.331       .  S
Zr383       O393   2.360       .  S
Zr383       O391   2.387   1_655  S
O384        H400   0.990   1_655  S
O385        H399   0.990   1_655  S
O385        H409   0.990       .  S
Zr386       O389   2.395       .  S
Zr386       O391   2.396       .  S
Zr386       O392   2.417       .  S
Zr387       O388   2.353       .  S
Zr387       O390   2.396       .  S
Zr387       O393   2.339       .  S
O388        H396   0.967       .  S
O391        H395   0.972       .  S
O392        H397   0.968       .  S
C410        C517   1.480       .  S
C410        C411   1.403       .  A
C410        C415   1.392       .  A
C411        C412   1.408       .  A
C411        H416   1.083       .  S
C412        C413   1.430       .  A
C413        C414   1.430       .  A
C413        H417   1.081       .  S
C414        C587   1.526       .  S
C414        C415   1.394       .  A
C415        H418   1.080       .  S
C419        C632   1.481       .  S
C419        C420   1.392       .  A
C419        C424   1.404       .  A
C420        C421   1.387       .  A
C420        H425   1.079       .  S
C421        C576   1.515       .  S
C421        C422   1.423       .  A
C422        C423   1.419       .  A
C422        H426   1.083       .  S
C423        C486   1.491       .  S
C423        C424   1.403       .  A
C424        H427   1.083       .  S
C428        C618   1.474       .  S
C428        C429   1.391       .  A
C428        C433   1.403       .  A
C429        C430   1.392       .  A
C429        H434   1.085       .  S
C430        C562   1.498       .  S
C430        C431   1.417       .  A
C431        C432   1.417       .  A
C431        H435   1.083       .  S
C432        C477   1.496       .  S
C432        C433   1.407       .  A
C433        H436   1.084       .  S
C437        C643   1.463       .  S
C437        C438   1.390       .  A
C437        C442   1.394       .  A
C438        C439   1.390       .  A
C438        H443   1.086       .  S
C439        C534   1.480       .  S
C439        C440   1.409       .  A
C440        C441   1.417       .  A
C440        H444   1.083       .  S
C441        C480   1.477       .  S
C441        C442   1.400       .  A
C442        H445   1.084       .  S
C446        C601   1.476       .  S
C446        C447   1.397       .  A
C446        C451   1.403       .  A
C447        C448   1.393       .  A
C447        H452   1.085       .  S
C448        C545   1.492       .  S
C448        C449   1.408       .  A
C449        C450   1.417       .  A
C449        H453   1.083       .  S
C450        C483   1.490       .  S
C450        C451   1.407       .  A
C451        H454   1.084       .  S
O455       Zr467   2.420   1_455  S
O455        C457   1.286       .  A
O456       Zr493   2.447       .  S
O456        C457   1.290       .  A
O458       Zr470   2.382       .  S
O458        C460   1.278       .  A
O459       Zr494   2.472   1_565  S
O459        C460   1.294       .  A
O461       Zr470   2.398   1_455  S
O461        C463   1.281       .  A
O462       Zr493   2.477   1_565  S
O462        C463   1.296       .  A
O464       Zr467   2.410       .  S
O464        C466   1.284       .  A
O465       Zr494   2.432       .  S
O465        C466   1.286       .  A
Zr467       O468   2.431       .  S
Zr467       O469   2.438       .  S
Zr467       O473   2.361   1_655  S
Zr467       O474   2.359       .  S
Zr467       O497   2.355       .  S
Zr467       O499   2.344   1_655  S
O468        H511   0.990   1_655  S
O469        H510   0.988   1_655  S
O469        H514   0.993       .  S
Zr470       O471   2.436       .  S
Zr470       O472   2.435       .  S
Zr470       O474   2.357   1_565  S
Zr470       O473   2.357   1_665  S
Zr470       O498   2.344   1_655  S
Zr470       O500   2.360       .  S
O471        H512   0.989       .  S
O471        H515   0.990       .  S
O472        H505   0.990   1_655  S
O473       Zr493   2.384       .  S
O474       Zr494   2.391       .  S
O474        H501   0.971       .  S
O475       Zr487   2.458       .  S
O475        C477   1.291       .  A
O476       Zr494   2.450       .  S
O476        C477   1.293       .  A
O478       Zr490   2.429   1_455  S
O478        C480   1.286       .  A
O479       Zr493   2.445   1_565  S
O479        C480   1.293       .  A
O481       Zr490   2.439       .  S
O481        C483   1.287       .  A
O482       Zr494   2.450   1_565  S
O482        C483   1.292       .  A
O484       Zr487   2.466   1_455  S
O484        C486   1.292       .  A
O485       Zr493   2.455       .  S
O485        C486   1.294       .  A
Zr487       O488   2.433       .  S
Zr487       O489   2.434       .  S
Zr487       O495   2.388       .  S
Zr487       O496   2.385   1_655  S
Zr487       O499   2.368   1_655  S
Zr487       O497   2.367       .  S
O488        H508   0.990       .  S
O488        H513   0.990       .  S
O489        H509   0.992       .  S
Zr490       O491   2.432       .  S
Zr490       O492   2.438       .  S
Zr490       O496   2.388   1_665  S
Zr490       O495   2.380   1_565  S
Zr490       O500   2.364       .  S
Zr490       O498   2.368   1_655  S
O491        H507   0.990   1_655  S
O492        H506   0.990       .  S
O492        H516   0.992       .  S
Zr493       O496   2.405       .  S
Zr493       O498   2.383   1_545  S
Zr493       O499   2.395       .  S
Zr494       O495   2.403       .  S
Zr494       O497   2.394       .  S
Zr494       O500   2.381   1_545  S
O495        H503   0.971       .  S
O498        H502   0.967       .  S
O499        H504   0.966       .  S
C517        C518   1.402       .  A
C517        C522   1.413       .  A
C518        C519   1.411       .  A
C518        C523   1.445       .  S
C519        C520   1.419       .  A
C519        C526   1.448       .  S
C520        C521   1.418       .  A
C521        C522   1.406       .  A
C521        C524   1.454       .  S
C522        C525   1.455       .  S
C523        N530   1.155       .  T
C524        N529   1.158       .  T
C525        N527   1.157       .  T
C526        N528   1.156       .  T
C531        C532   1.407       .  A
C531        C536   1.409       .  A
C532        C533   1.412       .  A
C532        C537   1.450       .  S
C533        C534   1.414       .  A
C533        C540   1.447       .  S
C534        C535   1.410       .  A
C535        C536   1.403       .  A
C535        C538   1.450       .  S
C536        C539   1.453       .  S
C537        N544   1.157       .  T
C538        N543   1.157       .  T
C539        N541   1.157       .  T
C540        N542   1.157       .  T
C545        C546   1.416       .  A
C545        C550   1.411       .  A
C546        C547   1.409       .  A
C546        C551   1.449       .  S
C547        C548   1.410       .  A
C547        C554   1.453       .  S
C548        C549   1.412       .  A
C549        C550   1.413       .  A
C549        C552   1.451       .  S
C550        C553   1.448       .  S
C551        N558   1.156       .  T
C552        N557   1.157       .  T
C553        N555   1.157       .  T
C554        N556   1.157       .  T
C559        C560   1.413       .  A
C559        C564   1.401       .  A
C560        C561   1.400       .  A
C560        C565   1.451       .  S
C561        C562   1.414       .  A
C561        C568   1.454       .  S
C562        C563   1.428       .  A
C563        C564   1.419       .  A
C563        C566   1.448       .  S
C564        C567   1.448       .  S
C565        N572   1.157       .  T
C566        N571   1.157       .  T
C567        N569   1.157       .  T
C568        N570   1.158       .  T
C573        C574   1.411       .  A
C573        C578   1.428       .  A
C574        C575   1.424       .  A
C574        C579   1.450       .  S
C575        C576   1.432       .  A
C575        C582   1.448       .  S
C576        C577   1.408       .  A
C577        C578   1.399       .  A
C577        C580   1.460       .  S
C578        C581   1.445       .  S
C579        N586   1.157       .  T
C580        N585   1.157       .  T
C581        N583   1.157       .  T
C582        N584   1.157       .  T
C587        C588   1.444       .  A
C587        C592   1.416       .  A
C588        C589   1.416       .  A
C588        C593   1.446       .  S
C589        C590   1.393       .  A
C589        C596   1.453       .  S
C590        C591   1.409       .  A
C591        C592   1.412       .  A
C591        C594   1.445       .  S
C592        C595   1.450       .  S
C593        N600   1.156       .  T
C594        N599   1.155       .  T
C595        N597   1.157       .  T
C596        N598   1.157       .  T
C601        C602   1.403       .  A
C601        C606   1.407       .  A
C602        C603   1.398       .  A
C602        C607   1.452       .  S
C603        C604   1.421       .  A
C603        C610   1.452       .  S
C604        C605   1.423       .  A
C605        C606   1.416       .  A
C605        C608   1.449       .  S
C606        C609   1.449       .  S
C607        N614   1.157       .  T
C608        N613   1.157       .  T
C609        N611   1.157       .  T
C610        N612   1.157       .  T
C615        C616   1.429       .  A
C615        C620   1.433       .  A
C616        C617   1.413       .  A
C616        C621   1.448       .  S
C617        C618   1.402       .  A
C617        C624   1.452       .  S
C618        C619   1.404       .  A
C619        C620   1.404       .  A
C619        C622   1.457       .  S
C620        C623   1.453       .  S
C621        N628   1.157       .  T
C622        N627   1.157       .  T
C623        N625   1.158       .  T
C624        N626   1.157       .  T
C629        C630   1.411       .  A
C629        C634   1.400       .  A
C630        C631   1.405       .  A
C630        C635   1.450       .  S
C631        C632   1.410       .  A
C631        C638   1.450       .  S
C632        C633   1.424       .  A
C633        C634   1.398       .  A
C633        C636   1.455       .  S
C634        C637   1.451       .  S
C635        N642   1.157       .  T
C636        N641   1.158       .  T
C637        N639   1.157       .  T
C638        N640   1.157       .  T
C643        C644   1.401       .  A
C643        C648   1.406       .  A
C644        C645   1.407       .  A
C644        C649   1.451       .  S
C645        C646   1.423       .  A
C645        C652   1.449       .  S
C646        C647   1.421       .  A
C647        C648   1.399       .  A
C647        C650   1.454       .  S
C648        C651   1.454       .  S
C649        N656   1.157       .  T
C650        N655   1.157       .  T
C651        N653   1.157       .  T
C652        N654   1.157       .  T
C657        C658   1.406       .  A
C657        C662   1.406       .  A
C658        C659   1.403       .  A
C658        C663   1.456       .  S
C659        C660   1.428       .  A
C659        C666   1.453       .  S
C660        C661   1.419       .  A
C661        C662   1.413       .  A
C661        C664   1.448       .  S
C662        C665   1.449       .  S
C663        N670   1.157       .  T
C664        N669   1.157       .  T
C665        N667   1.156       .  T
C666        N668   1.157       .  T
C671        C672   1.419       .  A
C671        C676   1.406       .  A
C672        C673   1.405       .  A
C672        C677   1.447       .  S
C673        C674   1.411       .  A
C673        C680   1.457       .  S
C674        C675   1.427       .  A
C675        C676   1.421       .  A
C675        C678   1.448       .  S
C676        C679   1.449       .  S
C677        N684   1.154       .  T
C678        N683   1.157       .  T
C679        N681   1.157       .  T
C680        N682   1.158       .  T
C685        C686   1.427       .  A
C685        C690   1.410       .  A
C686        C687   1.416       .  A
C686        C691   1.453       .  S
C687        C688   1.406       .  A
C687        C694   1.448       .  S
C688        C689   1.416       .  A
C689        C690   1.407       .  A
C689        C692   1.449       .  S
C690        C693   1.452       .  S
C691        N698   1.158       .  T
C692        N697   1.156       .  T
C693        N695   1.157       .  T
C694        N696   1.156       .  T
C699        C700   1.410       .  A
C699        C704   1.411       .  A
C700        C701   1.403       .  A
C700        C705   1.458       .  S
C701        C702   1.430       .  A
C701        C708   1.454       .  S
C702        C703   1.422       .  A
C703        C704   1.413       .  A
C703        C706   1.452       .  S
C704        C707   1.452       .  S
C705        N712   1.158       .  T
C706        N711   1.158       .  T
C707        N709   1.157       .  T
C708        N710   1.157       .  T
C713        C714   1.423       .  A
C713        C718   1.425       .  A
C714        C715   1.416       .  A
C714        C719   1.447       .  S
C715        C716   1.407       .  A
C715        C722   1.450       .  S
C716        C717   1.405       .  A
C717        C718   1.405       .  A
C717        C720   1.452       .  S
C718        C721   1.452       .  S
C719        N726   1.156       .  T
C720        N725   1.157       .  T
C721        N723   1.157       .  T
C722        N724   1.157       .  T
C727        C728   1.413       .  A
C727        C732   1.419       .  A
C728        C729   1.418       .  A
C728        C733   1.447       .  S
C729        C730   1.415       .  A
C729        C736   1.451       .  S
C730        C731   1.410       .  A
C731        C732   1.417       .  A
C731        C734   1.451       .  S
C732        C735   1.448       .  S
C733        N740   1.157       .  T
C734        N739   1.157       .  T
C735        N737   1.156       .  T
C736        N738   1.157       .  T
C741        C742   1.410       .  A
C741        C746   1.397       .  A
C742        C743   1.398       .  A
C742        C747   1.450       .  S
C743        C744   1.419       .  A
C743        C750   1.444       .  S
C744        C745   1.452       .  A
C745        C746   1.424       .  A
C745        C748   1.448       .  S
C746        C749   1.450       .  S
C747        N754   1.157       .  T
C748        N753   1.157       .  T
C749        N751   1.157       .  T
C750        N752   1.157       .  T
C755        C756   1.414       .  A
C755        C760   1.411       .  A
C756        C757   1.410       .  A
C756        C761   1.453       .  S
C757        C758   1.406       .  A
C757        C764   1.447       .  S
C758        C759   1.415       .  A
C759        C760   1.404       .  A
C759        C762   1.455       .  S
C760        C763   1.452       .  S
C761        N768   1.157       .  T
C762        N767   1.157       .  T
C763        N765   1.157       .  T
C764        N766   1.157       .  T
C769        C770   1.403       .  A
C769        C774   1.415       .  A
C770        C771   1.415       .  A
C770        C775   1.447       .  S
C771        C772   1.423       .  A
C771        C778   1.450       .  S
C772        C773   1.415       .  A
C773        C774   1.399       .  A
C773        C776   1.456       .  S
C774        C777   1.454       .  S
C775        N782   1.156       .  T
C776        N781   1.158       .  T
C777        N779   1.157       .  T
C778        N780   1.157       .  T
C783        C784   1.413       .  A
C783        C788   1.413       .  A
C784        C785   1.401       .  A
C784        C789   1.453       .  S
C785        C786   1.416       .  A
C785        C792   1.455       .  S
C786        C787   1.413       .  A
C787        C788   1.413       .  A
C787        C790   1.449       .  S
C788        C791   1.450       .  S
C789        N796   1.157       .  T
C790        N795   1.157       .  T
C791        N793   1.157       .  T
C792        N794   1.158       .  T
C797        C798   1.434       .  A
C797        C802   1.421       .  A
C798        C799   1.398       .  A
C798        C803   1.456       .  S
C799        C800   1.400       .  A
C799        C806   1.455       .  S
C800        C801   1.408       .  A
C801        C802   1.418       .  A
C801        C804   1.449       .  S
C802        C805   1.448       .  S
C803        N810   1.158       .  T
C804        N809   1.157       .  T
C805        N807   1.157       .  T
C806        N808   1.157       .  T
C811        C812   1.405       .  A
C811        C816   1.417       .  A
C812        C813   1.397       .  A
C812        C817   1.457       .  S
C813        C814   1.422       .  A
C813        C820   1.452       .  S
C814        C815   1.414       .  A
C815        C816   1.418       .  A
C815        C818   1.448       .  S
C816        C819   1.449       .  S
C817        N824   1.158       .  T
C818        N823   1.157       .  T
C819        N821   1.157       .  T
C820        N822   1.156       .  T
C825        C826   1.406       .  A
C825        C830   1.414       .  A
C826        C827   1.406       .  A
C826        C831   1.455       .  S
C827        C828   1.429       .  A
C827        C834   1.449       .  S
C828        C829   1.419       .  A
C829        C830   1.418       .  A
C829        C832   1.450       .  S
C830        C833   1.450       .  S
C831        N838   1.157       .  T
C832        N837   1.157       .  T
C833        N835   1.157       .  T
C834        N836   1.156       .  T
C839        C840   1.407       .  A
C839        C844   1.433       .  A
C840        C841   1.400       .  A
C840        C845   1.459       .  S
C841        C842   1.429       .  A
C841        C848   1.444       .  S
C842        C843   1.406       .  A
C843        C844   1.421       .  A
C843        C846   1.449       .  S
C844        C847   1.450       .  S
C845        N852   1.158       .  T
C846        N851   1.157       .  T
C847        N849   1.157       .  T
C848        N850   1.157       .  T
C853        C854   1.419       .  A
C853        C858   1.418       .  A
C854        C855   1.421       .  A
C854        C859   1.450       .  S
C855        C856   1.419       .  A
C855        C862   1.452       .  S
C856        C857   1.413       .  A
C857        C858   1.423       .  A
C857        C860   1.442       .  S
C858        C861   1.451       .  S
C859        N866   1.157       .  T
C860        N865   1.155       .  T
C861        N863   1.157       .  T
C862        N864   1.157       .  T
C867        C868   1.431       .  A
C867        C872   1.399       .  A
C868        C869   1.415       .  A
C868        C873   1.453       .  S
C869        C870   1.414       .  A
C869        C876   1.450       .  S
C870        C871   1.456       .  A
C871        C872   1.430       .  A
C871        C874   1.449       .  S
C872        C875   1.452       .  S
C873        N880   1.157       .  T
C874        N879   1.158       .  T
C875        N877   1.157       .  T
C876        N878   1.158       .  T
C881        C882   1.412       .  A
C881        C886   1.423       .  A
C882        C883   1.422       .  A
C882        C887   1.446       .  S
C883        C884   1.419       .  A
C883        C890   1.451       .  S
C884        C885   1.416       .  A
C885        C886   1.420       .  A
C885        C888   1.451       .  S
C886        C889   1.452       .  S
C887        N894   1.156       .  T
C888        N893   1.157       .  T
C889        N891   1.157       .  T
C890        N892   1.157       .  T
C895        C896   1.431       .  A
C895        C900   1.412       .  A
C896        C897   1.421       .  A
C896        C901   1.453       .  S
C897        C898   1.408       .  A
C897        C904   1.451       .  S
C898        C899   1.422       .  A
C899        C900   1.422       .  A
C899        C902   1.451       .  S
C900        C903   1.447       .  S
C901        N908   1.157       .  T
C902        N907   1.157       .  T
C903        N905   1.157       .  T
C904        N906   1.157       .  T
C909        C910   1.420       .  A
C909        C914   1.428       .  A
C910        C911   1.411       .  A
C910        C915   1.452       .  S
C911        C912   1.411       .  A
C911        C918   1.450       .  S
C912        C913   1.405       .  A
C913        C914   1.411       .  A
C913        C916   1.453       .  S
C914        C917   1.451       .  S
C915        N922   1.157       .  T
C916        N921   1.157       .  T
C917        N919   1.157       .  T
C918        N920   1.156       .  T
C923        C924   1.403       .  A
C923        C928   1.401       .  A
C924        C925   1.409       .  A
C924        C929   1.443       .  S
C925        C926   1.423       .  A
C925        C932   1.448       .  S
C926        C927   1.436       .  A
C927        C928   1.412       .  A
C927        C930   1.453       .  S
C928        C931   1.451       .  S
C929        N936   1.154   1_455  T
C930        N935   1.158       .  T
C931        N933   1.157       .  T
C932        N934   1.157       .  T
C937        C938   1.411       .  A
C937        C942   1.414       .  A
C938        C939   1.407       .  A
C938        C943   1.451       .  S
C939        C940   1.413       .  A
C939        C946   1.451       .  S
C940        C941   1.414       .  A
C941        C942   1.410       .  A
C941        C944   1.450       .  S
C942        C945   1.453       .  S
C943        N950   1.157       .  T
C944        N949   1.157       .  T
C945        N947   1.158       .  T
C946        N948   1.157       .  T
C951        C952   1.400       .  A
C951        C956   1.412       .  A
C952        C953   1.407       .  A
C952        C957   1.453       .  S
C953        C954   1.431       .  A
C953        C960   1.451       .  S
C954        C955   1.424       .  A
C955        C956   1.408       .  A
C955        C958   1.453       .  S
C956        C959   1.455       .  S
C957        N964   1.157       .  T
C958        N963   1.158       .  T
C959        N961   1.157       .  T
C960        N962   1.157       .  T
