geometry optimzed in LAMMPS
_audit_creation_date              2020-12-01 
_audit_creation_method            'lammps2cif' 
_symmetry_space_group_name_H-M    'P1' 
_symmetry_Int_Tables_number       1 
_symmetry_cell_setting            triclinic 
loop_ 
_symmetry_equiv_pos_as_xyz 
  x,y,z 
_cell_length_a                    61.68678408 
_cell_length_b                    61.77041487369535 
_cell_length_c                    61.68626305439091 
_cell_angle_alpha                 89.95465400513606 
_cell_angle_beta                  89.9366859965042 
_cell_angle_gamma                 89.88536072475688 
loop_ 
_atom_site_label 
_atom_site_type_symbol 
_atom_site_fract_x 
_atom_site_fract_y 
_atom_site_fract_z 
_atom_site_charge 
C1          C  0.19543161  0.80408819  0.51955337     0.03100
C2          C  0.17898162  0.81988996  0.51966580    -0.13000
C3          C  0.17031044  0.82789348  0.50019321     0.00600
C4          C  0.17832543  0.81987671  0.48042699    -0.11600
C5          C  0.19481388  0.80417950  0.47998342     0.03100
C6          C  0.20333536  0.79630003  0.49959897    -0.11000
H7          H  0.17292913  0.82597556  0.53499867     0.08700
H8          H  0.17163194  0.82574707  0.46527816     0.06200
H9          H  0.21599152  0.78411095  0.49932612     0.06100
C10         C  0.83488977  0.16202248  0.51791860     0.03100
C11         C  0.85196520  0.14696602  0.51871437    -0.13000
C12         C  0.86258118  0.14029176  0.49975782     0.00600
C13         C  0.85595478  0.14888300  0.47977657    -0.11600
C14         C  0.83881212  0.16381197  0.47861703     0.03100
C15         C  0.82825351  0.17030338  0.49774416    -0.11000
H16         H  0.85715614  0.14054798  0.53421760     0.08700
H17         H  0.86414490  0.14394732  0.46503033     0.06200
H18         H  0.81509307  0.18192127  0.49693548     0.06100
C19         C  0.83949171  0.80397677  0.51992268     0.03100
C20         C  0.85479421  0.82073504  0.51919361    -0.13000
C21         C  0.86249243  0.82874093  0.49936094     0.00600
C22         C  0.85477576  0.81966221  0.48007316    -0.11600
C23         C  0.83943463  0.80289834  0.48040357     0.03100
C24         C  0.83151192  0.79531453  0.50040231    -0.11000
H25         H  0.86033870  0.82790925  0.53421753     0.08700
H26         H  0.86089325  0.82549138  0.46466694     0.06200
H27         H  0.81980698  0.78226486  0.50078072     0.06100
C28         C  0.53937241  0.80541975  0.18252493     0.03100
C29         C  0.53860015  0.82254411  0.16753506    -0.13000
C30         C  0.51882527  0.82954776  0.15860829     0.00600
C31         C  0.49963232  0.81948386  0.16566055    -0.11600
C32         C  0.50005977  0.80287647  0.18121586     0.03100
C33         C  0.52003936  0.79543899  0.18916519    -0.11000
H34         H  0.55359081  0.83038394  0.16293373     0.08700
H35         H  0.48414891  0.82430341  0.15895204     0.06200
H36         H  0.52048356  0.78257757  0.20111724     0.06100
C37         C  0.82984606  0.46459786  0.17045622     0.03100
C38         C  0.84547112  0.46430653  0.15387077    -0.13000
C39         C  0.85646340  0.48326798  0.14770784     0.00600
C40         C  0.85069374  0.50282814  0.15784489    -0.11600
C41         C  0.83443698  0.50351099  0.17370359     0.03100
C42         C  0.82440067  0.48431124  0.18042647    -0.11000
H43         H  0.84925948  0.44907183  0.14607816     0.08700
H44         H  0.85891041  0.51774092  0.15373304     0.06200
H45         H  0.81200894  0.48479662  0.19288569     0.06100
C46         C  0.83551013  0.46502810  0.81647394     0.03100
C47         C  0.85224167  0.46440097  0.83197460    -0.13000
C48         C  0.86119072  0.48361012  0.84036646     0.00600
C49         C  0.85329529  0.50344463  0.83250951    -0.11600
C50         C  0.83591305  0.50443331  0.81792010     0.03100
C51         C  0.82713869  0.48513394  0.80974242    -0.11000
H52         H  0.85772414  0.44881768  0.83786049     0.08700
H53         H  0.86070237  0.51845572  0.83762723     0.06200
H54         H  0.81385945  0.48573312  0.79827369     0.06100
C55         C  0.53571848  0.16083625  0.82101345     0.03100
C56         C  0.51582590  0.16763957  0.81237566    -0.13000
C57         C  0.49629585  0.16150123  0.82235727     0.00600
C58         C  0.49680113  0.14778694  0.84056451    -0.11600
C59         C  0.51664058  0.14005078  0.84872321     0.03100
C60         C  0.53600102  0.14713098  0.83911907    -0.11000
H61         H  0.51556351  0.17824494  0.79837148     0.08700
H62         H  0.48169150  0.14245357  0.84775631     0.06200
H63         H  0.55144360  0.14182797  0.84562280     0.06100
C64         C  0.19359866  0.46133293  0.81667623     0.03100
C65         C  0.17630303  0.46164960  0.83148626    -0.13000
C66         C  0.16838982  0.48125540  0.83983430     0.00600
C67         C  0.17759239  0.50074416  0.83262289    -0.11600
C68         C  0.19481068  0.50081567  0.81766025     0.03100
C69         C  0.20306782  0.48096867  0.81005013    -0.11000
H70         H  0.16917098  0.44649890  0.83672547     0.08700
H71         H  0.17177516  0.51596860  0.83915102     0.06200
H72         H  0.21634803  0.48080893  0.79853948     0.06100
C73         C  0.49788650  0.80409239  0.82403778     0.03100
C74         C  0.49746411  0.82007498  0.84024379    -0.13000
C75         C  0.51633463  0.83128659  0.84622934     0.00600
C76         C  0.53591153  0.82613332  0.83567447    -0.11600
C77         C  0.53686492  0.80972293  0.81991712     0.03100
C78         C  0.51770642  0.79893649  0.81403216    -0.11000
H79         H  0.48227545  0.82377373  0.84820634     0.08700
H80         H  0.55062305  0.83460809  0.83995847     0.06200
H81         H  0.51827402  0.78637579  0.80180169     0.06100
C82         C  0.03528018  0.30356346  0.32432364     0.03100
C83         C  0.03593352  0.32001977  0.34005053    -0.13000
C84         C  0.01715635  0.33157594  0.34600939     0.00600
C85         C  0.99739282  0.32606899  0.33604057    -0.11600
C86         C  0.99613479  0.30892530  0.32116269     0.03100
C87         C  0.01515760  0.29778945  0.31526009    -0.11000
H88         H  0.05131392  0.32400096  0.34740879     0.08700
H89         H  0.98274036  0.33491376  0.33992825     0.06200
H90         H  0.01429637  0.28480146  0.30349986     0.06100
O91         O  0.28830884  0.20250729  0.23506229    -0.88400
C92         C  0.28518808  0.22753438  0.29581063     0.87700
Mg93       Mg  0.29695062  0.22167545  0.20736141     1.58100
O94         O  0.23449942  0.21859984  0.27165978    -0.88100
O95         O  0.26089605  0.18272882  0.24586973    -0.75400
C96         C  0.23953581  0.31227618  0.21708310     0.92700
O97         O  0.31690239  0.24007001  0.25615084    -0.75200
O98         O  0.25745569  0.30530977  0.20956876    -0.82700
Mg99       Mg  0.30931080  0.20426623  0.26292475     1.58000
C100        C  0.18592068  0.26459018  0.27458801     0.92600
O101        O  0.30529617  0.16781445  0.27158422    -0.81000
H102        H  0.21351089  0.19848016  0.25749582    -0.06300
C103        C  0.25711407  0.28028771  0.26779686     0.87600
O104        O  0.26115409  0.22691090  0.19865823    -0.75500
O105        O  0.28189373  0.21309326  0.28232531    -0.88300
O106        O  0.19854563  0.25423598  0.28730517    -0.81100
C107        C  0.23423229  0.20992957  0.32928281     0.92800
C108        C  0.29305836  0.15551935  0.28292528     0.92600
Mg109      Mg  0.22261122  0.26389156  0.23656218     1.58000
O110        O  0.22686355  0.30025568  0.22820217    -0.81000
O111        O  0.21512902  0.22810629  0.24337921    -0.75300
O112        O  0.24567833  0.19715377  0.31763224    -0.81100
O113        O  0.33923915  0.19629493  0.24294851    -0.82800
O114        O  0.28573082  0.27122948  0.18213208    -0.81100
C115        C  0.22062917  0.21445632  0.25780058     0.87000
O116        O  0.25017197  0.25504368  0.21738472    -0.88300
O117        O  0.24359128  0.26594811  0.26435094    -0.88400
O118        O  0.27137388  0.28537021  0.25384274    -0.75400
Mg119      Mg  0.25434688  0.19170648  0.28142312     1.58000
O120        O  0.22693724  0.22776378  0.32195110    -0.82800
H121        H  0.27458378  0.18023181  0.21605118    -0.06500
O122        O  0.29747805  0.24967790  0.22795346    -0.88100
H123        H  0.31860510  0.26970529  0.24205467    -0.06300
H124        H  0.23110845  0.24004383  0.19597008    -0.06500
C125        C  0.31141662  0.25375945  0.24176204     0.87000
C126        C  0.27487905  0.18806279  0.23171549     0.87600
C127        C  0.24687170  0.24093498  0.20355653     0.87700
H128        H  0.25732082  0.28814610  0.28344903    -0.06500
O129        O  0.27090729  0.24166198  0.30041629    -0.75500
Mg130      Mg  0.27773254  0.27633346  0.21836500     1.58000
H131        H  0.30097687  0.22864551  0.30331501    -0.06500
C132        C  0.34579421  0.20449593  0.22515258     0.92600
O133        O  0.30518062  0.24127600  0.17705239    -0.82800
C134        C  0.29712467  0.25893599  0.16998779     0.92700
O135        O  0.27495809  0.16219612  0.29044333    -0.82700
Mg136      Mg  0.23504551  0.24702764  0.29197118     1.58200
O137        O  0.33314508  0.21515585  0.21274864    -0.81100
O138        O  0.19241943  0.27182529  0.25634927    -0.82800
C139        C  0.33726546  0.96329849  0.32070648     0.03100
C140        C  0.32994649  0.98351242  0.31298521    -0.13000
C141        C  0.33842115  0.00283403  0.32163605     0.00600
C142        C  0.35393546  0.00168603  0.33825651    -0.11600
C143        C  0.36197698  0.98169054  0.34581883     0.03100
C144        C  0.35340379  0.96259799  0.33676370    -0.11000
H145        H  0.31784738  0.98419137  0.30028508     0.08700
H146        H  0.35942195  0.01668317  0.34540651     0.06200
H147        H  0.35955771  0.94693777  0.34168684     0.06100
O148        O  0.29177091  0.74544663  0.21900308    -0.88400
C149        C  0.28818108  0.68406457  0.24336482     0.87700
Mg150      Mg  0.30059008  0.77303487  0.23792483     1.58100
O151        O  0.23754999  0.70892168  0.23553105    -0.88100
O152        O  0.26358695  0.73529559  0.19996273    -0.75400
C153        C  0.24394405  0.76261816  0.32977440     0.92700
O154        O  0.32016714  0.72406109  0.25666174    -0.75200
O155        O  0.26146772  0.77095222  0.32271867    -0.82700
Mg156      Mg  0.31234855  0.71730167  0.22092488     1.58000
C157        C  0.19004374  0.70550090  0.28222073     0.92600
O158        O  0.30814043  0.70883303  0.18463929    -0.81000
H159        H  0.21575876  0.72292537  0.21605160    -0.06300
C160        C  0.26195489  0.71202894  0.29653086     0.87600
O161        O  0.26465457  0.78134549  0.24359856    -0.75500
O162        O  0.28472287  0.69832492  0.22971569    -0.88300
O163        O  0.20209082  0.69318080  0.27074313    -0.81100
C164        C  0.23720287  0.65155764  0.22511152     0.92800
C165        C  0.29533621  0.69806868  0.17249940     0.92600
Mg166      Mg  0.22681659  0.74308165  0.28141284     1.58000
O167        O  0.23190897  0.75094151  0.31768990    -0.81000
O168        O  0.21807488  0.73680644  0.24576140    -0.75300
O169        O  0.24857176  0.66365017  0.21278433    -0.81100
O170        O  0.34239462  0.73670139  0.21282628    -0.82800
O171        O  0.28924811  0.79898067  0.28754009    -0.81100
C172        C  0.22336290  0.72260150  0.23183146     0.87000
O173        O  0.25398662  0.76262296  0.27190406    -0.88300
O174        O  0.24786083  0.71527030  0.28261751    -0.88400
O175        O  0.27574808  0.72642935  0.30167784    -0.75400
Mg176      Mg  0.25703732  0.69978775  0.20847171     1.58000
O177        O  0.22979792  0.65830677  0.24318868    -0.82800
H178        H  0.27765841  0.76480454  0.19719861    -0.06500
O179        O  0.30148101  0.75279145  0.26623043    -0.88100
H180        H  0.32252265  0.73831649  0.28617047    -0.06300
H181        H  0.23454554  0.78363016  0.25669329    -0.06500
C182        C  0.31517912  0.73869258  0.27026881     0.87000
C183        C  0.27798809  0.74908642  0.20491475     0.87600
C184        C  0.25043541  0.77627692  0.25764347     0.87700
H185        H  0.26294389  0.69627659  0.30412211    -0.06500
O186        O  0.27408642  0.67888417  0.25745101    -0.75500
Mg187      Mg  0.28169526  0.76229124  0.29307879     1.58000
H188        H  0.30391219  0.67632905  0.24379779    -0.06500
C189        C  0.34934459  0.75470997  0.22004304     0.92600
O190        O  0.30858353  0.80336335  0.25730843    -0.82800
C191        C  0.30052089  0.81086758  0.27481119     0.92700
O192        O  0.27710954  0.69119316  0.17924227    -0.82700
Mg193      Mg  0.23846832  0.68790565  0.26331440     1.58200
O194        O  0.33709383  0.76774378  0.23052838    -0.81100
O195        O  0.19717796  0.72307201  0.29031056    -0.82800
O196        O  0.79676662  0.25750954  0.23291810    -0.88400
C197        C  0.77355881  0.25571252  0.29458092     0.87700
Mg198      Mg  0.77697710  0.26527020  0.20553688     1.58100
O199        O  0.78185210  0.20477263  0.27064623    -0.88100
O200        O  0.81720659  0.23053610  0.24355547    -0.75400
C201        C  0.68610681  0.20900630  0.21947240     0.92700
O202        O  0.75956247  0.28676039  0.25422193    -0.75200
O203        O  0.69259213  0.22676171  0.21121672    -0.82700
Mg204      Mg  0.79552210  0.27927214  0.26021245     1.58000
C205        C  0.73576523  0.15656722  0.27561557     0.92600
O206        O  0.83219375  0.27566810  0.26820462    -0.81000
H207        H  0.80146843  0.18356142  0.25595133    -0.06300
C208        C  0.72009131  0.22782759  0.26873412     0.87600
O209        O  0.77135912  0.22943290  0.19802245    -0.75500
O210        O  0.78732156  0.25225543  0.28039237    -0.88300
O211        O  0.74689359  0.16901653  0.28779804    -0.81100
C212        C  0.79258858  0.20554931  0.32793813     0.92800
C213        C  0.84454180  0.26367186  0.27975747     0.92600
Mg214      Mg  0.73519184  0.19270889  0.23753130     1.58000
O215        O  0.69866513  0.19688196  0.23058799    -0.81000
O216        O  0.77126206  0.18508650  0.24304842    -0.75300
O217        O  0.80458307  0.21710597  0.31567882    -0.81100
O218        O  0.80286290  0.30860942  0.23919229    -0.82800
O219        O  0.72596203  0.25475280  0.18190228    -0.81100
C220        C  0.78549107  0.19073672  0.25680727     0.87000
O221        O  0.74333388  0.21961283  0.21750161    -0.88300
O222        O  0.73421965  0.21406206  0.26507735    -0.88400
O223        O  0.71441698  0.24164097  0.25455096    -0.75400
Mg224      Mg  0.80887270  0.22480236  0.27933346     1.58000
O225        O  0.77477985  0.19756627  0.32131434    -0.82800
H226        H  0.81889396  0.24387266  0.21354245    -0.06500
O227        O  0.74920834  0.26689357  0.22667611    -0.88100
H228        H  0.72957913  0.28842306  0.24086509    -0.06300
H229        H  0.75757743  0.19971484  0.19627633    -0.06500
C230        C  0.74551567  0.28112790  0.24028983     0.87000
C231        C  0.81138364  0.24426392  0.22938126     0.87600
C232        C  0.75710004  0.21566784  0.20346048     0.87700
H233        H  0.71288515  0.22859184  0.28470060    -0.06500
O234        O  0.75979102  0.24145351  0.30011342    -0.75500
Mg235      Mg  0.72204382  0.24722537  0.21852346     1.58000
H236        H  0.77277150  0.27155206  0.30198826    -0.06500
C237        C  0.79482811  0.31443566  0.22106925     0.92600
O238        O  0.75677542  0.27255174  0.17577972    -0.82800
C239        C  0.73856923  0.26533333  0.16934338     0.92700
O240        O  0.83802190  0.24567404  0.28747407    -0.82700
Mg241      Mg  0.75421253  0.20554394  0.29205431     1.58200
O242        O  0.78409964  0.30142336  0.20919946    -0.81100
O243        O  0.72768802  0.16316326  0.25782331    -0.82800
C244        C  0.70045721  0.96447464  0.31879517     0.03100
C245        C  0.68498477  0.96372229  0.33549019    -0.13000
C246        C  0.67584751  0.98271220  0.34393309     0.00600
C247        C  0.68271245  0.00272302  0.33562383    -0.11600
C248        C  0.69853443  0.00393025  0.31927065     0.03100
C249        C  0.70699402  0.98466559  0.31043278    -0.11000
H250        H  0.68021392  0.94816657  0.34204126     0.08700
H251        H  0.67568020  0.01757000  0.34181125     0.06200
H252        H  0.71925920  0.98539081  0.29786938     0.06100
O253        O  0.73772828  0.75486699  0.26457566    -0.88400
C254        C  0.76317192  0.75281732  0.20367399     0.87700
Mg255      Mg  0.75621368  0.76377553  0.29250822     1.58100
O256        O  0.75432859  0.70185482  0.22694054    -0.88100
O257        O  0.71854900  0.72723899  0.25320323    -0.75400
C258        C  0.84742836  0.70647585  0.28295145     0.92700
O259        O  0.77531569  0.78420486  0.24381414    -0.75200
O260        O  0.84085807  0.72460120  0.29032173    -0.82700
Mg261      Mg  0.73975528  0.77593273  0.23686179     1.58000
C262        C  0.80031720  0.65422711  0.22450976     0.92600
O263        O  0.70384125  0.77133671  0.22863594    -0.81000
H264        H  0.73416225  0.68058389  0.24067646    -0.06300
C265        C  0.81581461  0.72499015  0.23175907     0.87600
O266        O  0.76192436  0.72801366  0.30098073    -0.75500
O267        O  0.74902283  0.74899235  0.21735790    -0.88300
O268        O  0.78995109  0.66697915  0.21193483    -0.81100
C269        C  0.74602601  0.70322180  0.16898289     0.92800
C270        C  0.69150911  0.75937224  0.21722793     0.92600
Mg271      Mg  0.79911558  0.69022139  0.26263701     1.58000
O272        O  0.83516829  0.69423457  0.27169773    -0.81000
O273        O  0.76349439  0.68252851  0.25535045    -0.75300
O274        O  0.73317407  0.71415076  0.18101947    -0.81100
O275        O  0.73082907  0.80527825  0.25658630    -0.82800
O276        O  0.80568656  0.75265455  0.31738618    -0.81100
C277        C  0.75008166  0.68787369  0.24066807     0.87000
O278        O  0.79003669  0.71749061  0.28193416    -0.88300
O279        O  0.80141992  0.71144704  0.23494392    -0.88400
O280        O  0.82080090  0.73903230  0.24591825    -0.75400
Mg281      Mg  0.72759455  0.72152825  0.21748544     1.58000
O282        O  0.76376268  0.69547583  0.17626180    -0.82800
H283        H  0.71573704  0.74018260  0.28329443    -0.06500
O284        O  0.78465391  0.76483394  0.27209862    -0.88100
H285        H  0.80465376  0.78633534  0.25847031    -0.06300
H286        H  0.77538011  0.69811316  0.30335945    -0.06500
C287        C  0.78879846  0.77890848  0.25844522     0.87000
C288        C  0.72357768  0.74102010  0.26763366     0.87600
C289        C  0.77605462  0.71392478  0.29586359     0.87700
H290        H  0.82382254  0.72540098  0.21616621    -0.06500
O291        O  0.77748481  0.73890164  0.19863547    -0.75500
Mg292      Mg  0.81146587  0.74499242  0.28140480     1.58000
H293        H  0.76386226  0.76872892  0.19639563    -0.06500
C294        C  0.73778674  0.81233415  0.27464072     0.92600
O295        O  0.77538542  0.77163566  0.32296286    -0.82800
C296        C  0.79317479  0.76358655  0.32973049     0.92700
O297        O  0.69818964  0.74174990  0.20885143    -0.82700
Mg298      Mg  0.78284543  0.70312543  0.20692620     1.58200
O299        O  0.74856183  0.80031721  0.28763932    -0.81100
O300        O  0.80762322  0.66047804  0.24275967    -0.82800
C301        C  0.03837241  0.66051397  0.32138183     0.03100
C302        C  0.01833288  0.66856129  0.31408692    -0.13000
C303        C  0.99890647  0.66017068  0.32258481     0.00600
C304        C  0.99979776  0.64453791  0.33908938    -0.11600
C305        C  0.01969965  0.63648504  0.34664213     0.03100
C306        C  0.03892659  0.64440426  0.33738932    -0.11000
H307        H  0.01787480  0.68072159  0.30142682     0.08700
H308        H  0.98479268  0.63891837  0.34626261     0.06200
H309        H  0.05447285  0.63803888  0.34253412     0.06100
C310        C  0.33484832  0.30405025  0.01782749     0.03100
C311        C  0.35073359  0.32025565  0.01810946    -0.13000
C312        C  0.36096452  0.32718263  0.99891472     0.00600
C313        C  0.35386575  0.31837205  0.97910870    -0.11600
C314        C  0.33729166  0.30281842  0.97849253     0.03100
C315        C  0.32829012  0.29515833  0.99797218    -0.11000
H316        H  0.35511894  0.32729950  0.03354888     0.08700
H317        H  0.36143893  0.32310057  0.96400765     0.06200
H318        H  0.31576875  0.28288253  0.99764148     0.06100
O319        O  0.29751862  0.24615035  0.76951900    -0.88400
C320        C  0.27488532  0.18445414  0.76827124     0.87700
Mg321      Mg  0.27801499  0.27300317  0.77953854     1.58100
O322        O  0.28014856  0.20860948  0.71718538    -0.88100
O323        O  0.31617374  0.23602144  0.74099215    -0.75400
C324        C  0.18485211  0.25993636  0.72687209     0.92700
O325        O  0.26243813  0.22379817  0.80059834    -0.75200
O326        O  0.19171567  0.26807393  0.74455648    -0.82700
Mg327      Mg  0.29795660  0.21847630  0.79066504     1.58000
C328        C  0.23211232  0.20456963  0.67146328     0.92600
O329        O  0.33425085  0.21161699  0.78439928    -0.81000
H330        H  0.29854668  0.22340550  0.69499872    -0.06300
C331        C  0.21966889  0.21030672  0.74356189     0.87600
O332        O  0.27029275  0.28156576  0.74417679    -0.75500
O333        O  0.28822473  0.19877988  0.76401830    -0.88300
O334        O  0.24390202  0.19229887  0.68327423    -0.81100
C335        C  0.29109114  0.15110179  0.71783812     0.92800
C336        C  0.34622179  0.20044701  0.77173558     0.92600
Mg337      Mg  0.23311473  0.24193128  0.70827179     1.58000
O338        O  0.19718535  0.24893947  0.71444336    -0.81000
O339        O  0.26859835  0.23655423  0.69851864    -0.75300
O340        O  0.30352752  0.16376608  0.72841256    -0.81100
O341        O  0.30720532  0.23860594  0.81975300    -0.82800
O342        O  0.22691436  0.29677157  0.77123817    -0.81100
C343        C  0.28301984  0.22257957  0.70309912     0.87000
O344        O  0.24251777  0.26151412  0.73513709    -0.88300
O345        O  0.23322069  0.21410737  0.72925066    -0.88400
O346        O  0.21453035  0.22430646  0.75777847    -0.75400
Mg347      Mg  0.30820683  0.20011793  0.73549990     1.58000
O348        O  0.27297078  0.15755790  0.71026773    -0.82800
H349        H  0.31813472  0.26597207  0.75432257    -0.06500
O350        O  0.25054181  0.25165297  0.78198570    -0.88100
H351        H  0.23238139  0.23668359  0.80425796    -0.06300
H352        H  0.25511229  0.28360332  0.71508683    -0.06500
C353        C  0.24785602  0.23763871  0.79607110     0.87000
C354        C  0.31102386  0.25001177  0.75519546     0.87600
C355        C  0.25564065  0.27600370  0.73087171     0.87700
H356        H  0.21249567  0.19437297  0.74441693    -0.06500
O357        O  0.26031621  0.17885512  0.75485783    -0.75500
Mg358      Mg  0.22236725  0.26022997  0.76361686     1.58000
H359        H  0.27517586  0.17699650  0.78413020    -0.06500
C360        C  0.29934107  0.25620842  0.82706668     0.92600
O361        O  0.25793648  0.30207231  0.78892801    -0.82800
C362        C  0.23976129  0.30893528  0.78196304     0.92700
O363        O  0.33882939  0.19226997  0.75430373    -0.82700
Mg364      Mg  0.25278484  0.18717765  0.71934799     1.58200
O365        O  0.28735306  0.26843768  0.81546876    -0.81100
O366        O  0.22392573  0.22203438  0.67878744    -0.82800
C367        C  0.34213064  0.96161849  0.67684023     0.03100
C368        C  0.35875861  0.96294002  0.66131618    -0.13000
C369        C  0.36671767  0.98305311  0.65427661     0.00600
C370        C  0.35795715  0.00203742  0.66318526    -0.11600
C371        C  0.34123731  0.00112963  0.67862368     0.03100
C372        C  0.33307730  0.98087640  0.68516318    -0.11000
H373        H  0.36524268  0.94816550  0.65439117     0.08700
H374        H  0.36429623  0.01764723  0.65828621     0.06200
H375        H  0.32032949  0.98011214  0.69723482     0.06100
O376        O  0.23933173  0.74571544  0.72691351    -0.88400
C377        C  0.26325034  0.68432682  0.73152420     0.87700
Mg378      Mg  0.25871724  0.77284522  0.71714683     1.58100
O379        O  0.25427442  0.70975916  0.78154466    -0.88100
O380        O  0.21927572  0.73568283  0.75454847    -0.75400
C381        C  0.34939771  0.76120629  0.77488388     0.92700
O382        O  0.27646991  0.72319435  0.69819957    -0.75200
O383        O  0.34365926  0.76856531  0.75643052    -0.82700
Mg384      Mg  0.24070562  0.71739556  0.70660388     1.58000
C385        C  0.29949785  0.70847820  0.83003570     0.92600
O386        O  0.20444981  0.71017429  0.71140486    -0.81000
H387        H  0.23420221  0.72535179  0.80166658    -0.06300
C388        C  0.31568920  0.71173036  0.75820669     0.87600
O389        O  0.26459945  0.78239506  0.75250371    -0.75500
O390        O  0.24937701  0.69851882  0.73447044    -0.88300
O391        O  0.28914391  0.69534513  0.81789467    -0.81100
C392        C  0.24521650  0.65198590  0.78238864     0.92800
C393        C  0.19169157  0.69938695  0.72357754     0.92600
Mg394      Mg  0.29997004  0.74456460  0.79170798     1.58000
O395        O  0.33617186  0.75140910  0.78737516    -0.81000
O396        O  0.26398864  0.73898482  0.79926205    -0.75300
O397        O  0.23284263  0.66385795  0.77071963    -0.81100
O398        O  0.23235583  0.73666177  0.67636885    -0.82800
O399        O  0.30977077  0.79727652  0.72675300    -0.81100
C400        C  0.25023247  0.72441812  0.79462195     0.87000
O401        O  0.29220494  0.76302057  0.76351849    -0.88300
O402        O  0.30160285  0.71596361  0.77187902    -0.88400
O403        O  0.32118373  0.72515700  0.74358142    -0.75400
Mg404      Mg  0.22761894  0.70006095  0.76179144     1.58000
O405        O  0.26273470  0.65922760  0.79051640    -0.82800
H406        H  0.21736176  0.76533273  0.74047577    -0.06500
O407        O  0.28666927  0.75186332  0.71646735    -0.88100
H408        H  0.30622257  0.73684261  0.69542583    -0.06300
H409        H  0.27834005  0.78557798  0.78217154    -0.06500
C410        C  0.29037756  0.73758578  0.70289912     0.87000
C411        C  0.22492963  0.74953172  0.74037181     0.87600
C412        C  0.27869892  0.77748478  0.76664101     0.87700
H413        H  0.32296104  0.69579063  0.75819466    -0.06500
O414        O  0.27703935  0.67939037  0.74601342    -0.75500
Mg415      Mg  0.31381005  0.76082879  0.73608262     1.58000
H416        H  0.26409565  0.67636914  0.71594202    -0.06500
C417        C  0.23935583  0.75464975  0.66911635     0.92600
O418        O  0.27905675  0.80212006  0.70822225    -0.82800
C419        C  0.29711973  0.80915256  0.71535647     0.92700
O420        O  0.19807327  0.69122430  0.74146038    -0.82700
Mg421      Mg  0.28234766  0.68899287  0.78160481     1.58200
O422        O  0.25049172  0.76747935  0.68089803    -0.81100
O423        O  0.30721441  0.72613969  0.82272945    -0.82800
C424        C  0.03850743  0.66936030  0.67721680     0.03100
C425        C  0.01927150  0.67642086  0.68715323    -0.13000
C426        C  0.99939217  0.66702079  0.68150754     0.00600
C427        C  0.99885003  0.65018468  0.66625741    -0.11600
C428        C  0.01786169  0.64321627  0.65568452     0.03100
C429        C  0.03759813  0.65324403  0.66117108    -0.11000
H430        H  0.01977410  0.68910052  0.69927591     0.08700
H431        H  0.98344053  0.64262874  0.66269474     0.06200
H432        H  0.05248172  0.64841385  0.65321396     0.06100
C433        C  0.03518295  0.29952249  0.67702738     0.03100
C434        C  0.03569721  0.31543926  0.66081721    -0.13000
C435        C  0.01643098  0.32407293  0.65228480     0.00600
C436        C  0.99653952  0.31608273  0.65995759    -0.11600
C437        C  0.99581043  0.30041991  0.67643750     0.03100
C438        C  0.01520293  0.29236997  0.68520364    -0.11000
H439        H  0.05125497  0.32139464  0.65527685     0.08700
H440        H  0.98147003  0.32200021  0.65314410     0.06200
H441        H  0.01474867  0.28010789  0.69777058     0.06100
O442        O  0.77832944  0.25671653  0.77871868    -0.88400
C443        C  0.71739839  0.25174656  0.75349176     0.87700
Mg444      Mg  0.80583824  0.26650141  0.75998079     1.58100
O445        O  0.74317777  0.20166141  0.76142590    -0.88100
O446        O  0.76840558  0.22810336  0.79736978    -0.75400
C447        C  0.79752283  0.21024385  0.66851431     0.92700
O448        O  0.75631554  0.28521509  0.74118925    -0.75200
O449        O  0.80466356  0.22830917  0.67532610    -0.82700
Mg450      Mg  0.74966774  0.27661575  0.77673653     1.58000
C451        C  0.74204347  0.15457574  0.71447912     0.92600
O452        O  0.74120020  0.27117058  0.81278803    -0.81000
H453        H  0.75727933  0.18030200  0.78130059    -0.06300
C454        C  0.74632488  0.22613142  0.70065043     0.87600
O455        O  0.81540487  0.23098882  0.75429394    -0.75500
O456        O  0.73146213  0.24859001  0.76741947    -0.88300
O457        O  0.72894684  0.16638573  0.72529132    -0.81100
C458        C  0.68557303  0.19994603  0.77012728     0.92800
C459        C  0.73061197  0.25819082  0.82495685     0.92600
Mg460      Mg  0.77862527  0.19211887  0.71656093     1.58000
O461        O  0.78690683  0.19740225  0.68070960    -0.81000
O462        O  0.77198948  0.18314216  0.75201493    -0.75300
O463        O  0.69709580  0.21157949  0.78277224    -0.81100
O464        O  0.76837022  0.30741106  0.78520506    -0.82800
O465        O  0.83111924  0.25597093  0.71073829    -0.81100
C466        C  0.75717421  0.18789882  0.76550527     0.87000
O467        O  0.79676012  0.21996070  0.72614411    -0.88300
O468        O  0.75011879  0.21228457  0.71465112    -0.88400
O469        O  0.75993038  0.24079383  0.69586177    -0.75400
Mg470      Mg  0.73306854  0.22070360  0.78838857     1.58000
O471        O  0.69305797  0.19254880  0.75237748    -0.82800
H472        H  0.79768286  0.24263343  0.80055954    -0.06500
O473        O  0.78530991  0.26688365  0.73183252    -0.88100
H474        H  0.77094488  0.28797060  0.71185875    -0.06300
H475        H  0.81864303  0.20115741  0.74092423    -0.06500
C476        C  0.77116420  0.28049336  0.72770956     0.87000
C477        C  0.78204039  0.24278783  0.79267372     0.87600
C478        C  0.81071304  0.21676469  0.74019119     0.87700
H479        H  0.73064732  0.22624264  0.69283394    -0.06500
O480        O  0.71282237  0.23759177  0.73929587    -0.75500
Mg481      Mg  0.79527892  0.24770859  0.70498441     1.58000
H482        H  0.70927056  0.26725960  0.75294388    -0.06500
C483        C  0.78620028  0.31473622  0.77770110     0.92600
O484        O  0.83617457  0.27544996  0.74066363    -0.82800
C485        C  0.84327637  0.26720399  0.72308562     0.92700
O486        O  0.72362213  0.24006639  0.81810438    -0.82700
Mg487      Mg  0.72274616  0.20226541  0.73320482     1.58200
O488        O  0.79939367  0.30267595  0.76721897    -0.81100
O489        O  0.75999934  0.16187962  0.70741333    -0.82800
C490        C  0.69734135  0.96346078  0.67958701     0.03100
C491        C  0.70436401  0.98343422  0.68774832    -0.13000
C492        C  0.69579301  0.00278242  0.67944795     0.00600
C493        C  0.68005383  0.00206818  0.66305725    -0.11600
C494        C  0.67302958  0.98219150  0.65462190     0.03100
C495        C  0.68175962  0.96298957  0.66303993    -0.11000
H496        H  0.71660441  0.98394936  0.70032781     0.08700
H497        H  0.67341030  0.01707162  0.65679798     0.06200
H498        H  0.67651492  0.94754625  0.65661404     0.06100
O499        O  0.78344429  0.76765034  0.73011813    -0.88400
C500        C  0.72210498  0.74288793  0.73133261     0.87700
Mg501      Mg  0.81108232  0.74924574  0.72085028     1.58100
O502        O  0.74467952  0.74914951  0.78299895    -0.88100
O503        O  0.77247023  0.78495427  0.75920725    -0.75400
C504        C  0.80017254  0.65715787  0.77529554     0.92700
O505        O  0.76249461  0.73116238  0.69934164    -0.75200
O506        O  0.80783208  0.66421067  0.75749724    -0.82700
Mg507      Mg  0.75577041  0.76636516  0.70894492     1.58000
C508        C  0.74086396  0.70174618  0.82900099     0.92600
O509        O  0.74779563  0.80194872  0.71493799    -0.81000
H510        H  0.75706714  0.76839284  0.80584725    -0.06300
C511        C  0.74905952  0.68930250  0.75710023     0.87600
O512        O  0.81900985  0.74239407  0.75663767    -0.75500
O513        O  0.73622863  0.75635771  0.73575682    -0.88300
O514        O  0.72808803  0.71250306  0.81672611    -0.81100
C515        C  0.68736313  0.75963824  0.78112526     0.92800
C516        C  0.73690529  0.81389515  0.72778820     0.92600
Mg517      Mg  0.77953646  0.70451541  0.79317064     1.58000
O518        O  0.78868838  0.66894061  0.78780755    -0.81000
O519        O  0.77241625  0.73950515  0.80280112    -0.75300
O520        O  0.70037388  0.77204135  0.77095224    -0.81100
O521        O  0.77565472  0.77595369  0.67961472    -0.82800
O522        O  0.83591896  0.69995407  0.73169679    -0.81100
C523        C  0.75767106  0.75289481  0.79773536     0.87000
O524        O  0.79910248  0.71466710  0.76627085    -0.88300
O525        O  0.75186031  0.70275324  0.77170379    -0.88400
O526        O  0.76362250  0.68503553  0.74311949    -0.75400
Mg527      Mg  0.73663495  0.77662414  0.76420505     1.58000
O528        O  0.69336611  0.74123645  0.78842755    -0.82800
H529        H  0.80247456  0.78825330  0.74620135    -0.06500
O530        O  0.79051112  0.72127870  0.71875945    -0.88100
H531        H  0.77733067  0.70197707  0.69638472    -0.06300
H532        H  0.82038737  0.72842599  0.78639547    -0.06500
C533        C  0.77711397  0.71756229  0.70434633     0.87000
C534        C  0.78669856  0.78077636  0.74489995     0.87600
C535        C  0.81320979  0.72823715  0.77041616     0.87700
H536        H  0.73345158  0.68149460  0.75572571    -0.06500
O537        O  0.71631183  0.72842360  0.74477272    -0.75500
Mg538      Mg  0.79940583  0.69410871  0.73807786     1.58000
H539        H  0.71503012  0.74296168  0.71530493    -0.06500
C540        C  0.79384201  0.76907807  0.67265131     0.92600
O541        O  0.84109970  0.72998952  0.71236397    -0.82800
C542        C  0.84818242  0.71249107  0.72069879     0.92700
O543        O  0.72899616  0.80675531  0.74540772    -0.82700
Mg544      Mg  0.72383847  0.72141381  0.78051515     1.58200
O545        O  0.80666230  0.75807710  0.68462436    -0.81100
O546        O  0.75927702  0.69502276  0.82241341    -0.82800
C547        C  0.34100775  0.66187115  0.02025765     0.03100
C548        C  0.35680755  0.64557345  0.01932796    -0.13000
C549        C  0.36293905  0.63618828  0.99952238     0.00600
C550        C  0.35341736  0.64398696  0.98033444    -0.11600
C551        C  0.33806982  0.66087056  0.98087063     0.03100
C552        C  0.33178859  0.66962607  0.00093726    -0.11000
H553        H  0.36412108  0.64001612  0.03427684     0.08700
H554        H  0.35789660  0.63696661  0.96488559     0.06200
H555        H  0.31966198  0.68232889  0.00152661     0.06100
C556        C  0.69023535  0.29848040  0.01694913     0.03100
C557        C  0.69935910  0.29121263  0.99726495    -0.13000
C558        C  0.69289178  0.30053297  0.97746136     0.00600
C559        C  0.67712146  0.31696161  0.97751572    -0.11600
C560        C  0.66784041  0.32431356  0.99688363     0.03100
C561        C  0.67440038  0.31485555  0.01647614    -0.11000
H562        H  0.71168243  0.27869648  0.99737730     0.08700
H563        H  0.67230119  0.32430255  0.96231085     0.06200
H564        H  0.66740913  0.32053420  0.03154461     0.06100
C565        C  0.69818430  0.65899366  0.01952141     0.03100
C566        C  0.68220835  0.64285270  0.02059681    -0.13000
C567        C  0.67360493  0.63364707  0.00167983     0.00600
C568        C  0.68098268  0.64101561  0.98145894    -0.11600
C569        C  0.69689327  0.65722816  0.97997599     0.03100
C570        C  0.70578381  0.66586160  0.99912078    -0.11000
H571        H  0.67632003  0.63757512  0.03629038     0.08700
H572        H  0.67447504  0.63396841  0.96676455     0.06200
H573        H  0.71785290  0.67854702  0.99815270     0.06100
C574        C  0.53536751  0.16455134  0.17790399     0.03100
C575        C  0.51617913  0.17459197  0.18489046    -0.13000
C576        C  0.49624078  0.16862722  0.17582174     0.00600
C577        C  0.49550010  0.15264389  0.15972213    -0.11600
C578        C  0.51454113  0.14230127  0.15276991     0.03100
C579        C  0.53443411  0.14851540  0.16187827    -0.11000
H580        H  0.51672180  0.18682612  0.19746324     0.08700
H581        H  0.47993873  0.14771346  0.15327618     0.06200
H582        H  0.54937247  0.14117509  0.15622576     0.06100
C583        C  0.19468639  0.46297874  0.17529160     0.03100
C584        C  0.20369150  0.48269124  0.18219386    -0.13000
C585        C  0.19633381  0.50242691  0.17348890     0.00600
C586        C  0.17998811  0.50222964  0.15767019    -0.11600
C587        C  0.17080052  0.48265953  0.15068053     0.03100
C588        C  0.17830544  0.46312148  0.15950154    -0.11000
H589        H  0.21621711  0.48268941  0.19449757     0.08700
H590        H  0.17413402  0.51740372  0.15104080     0.06200
H591        H  0.17124933  0.44797206  0.15419614     0.06100
C592        C  0.19598793  0.16080536  0.51904079     0.03100
C593        C  0.20157380  0.16968924  0.49883884    -0.13000
C594        C  0.19314680  0.16069085  0.47964506     0.00600
C595        C  0.17853653  0.14328285  0.48097808    -0.11600
C596        C  0.17232272  0.13483762  0.50116598     0.03100
C597        C  0.18149299  0.14344101  0.52005569    -0.11000
H598        H  0.21287701  0.18307180  0.49804253     0.08700
H599        H  0.17146821  0.13679860  0.46628179     0.06200
H600        H  0.17719887  0.13673572  0.53572964     0.06100
N601        N  0.01409480  0.95032851  0.50590648    -0.36600
N602        N  0.98229990  0.98556551  0.50473439    -0.57200
N603        N  0.01699847  0.01667835  0.50874091    -0.36600
N604        N  0.04877906  0.98156523  0.50709061    -0.57200
C605        C  0.99604191  0.93964682  0.49969027     0.27000
C606        C  0.03125330  0.93738330  0.50132010     0.27000
C607        C  0.00016566  0.02986660  0.50376482     0.27000
C608        C  0.03539382  0.02771210  0.50433055     0.27000
C609        C  0.96878091  0.96855078  0.50703018     0.35600
C610        C  0.97039833  0.00346609  0.50895979     0.35600
C611        C  0.06040619  0.96333621  0.51066962     0.35600
C612        C  0.06201099  0.99832254  0.51175332     0.35600
C613        C  0.00177013  0.91961914  0.49124050    -0.21900
C614        C  0.02398622  0.91819665  0.49226605    -0.21900
C615        C  0.00793413  0.04953265  0.49626016    -0.21900
C616        C  0.03016968  0.04815526  0.49654931    -0.21900
C617        C  0.94820083  0.97565576  0.51267441    -0.23000
C618        C  0.94923697  0.99780219  0.51393641    -0.23000
C619        C  0.08106948  0.96854951  0.51772887    -0.23000
C620        C  0.08209048  0.99072766  0.51840550    -0.23000
C621        C  0.97446290  0.94681780  0.50279726    -0.18300
C622        C  0.05321675  0.94217806  0.50578667    -0.18300
C623        C  0.05673702  0.02032951  0.50840168    -0.18300
C624        C  0.97799995  0.02488470  0.50662171    -0.18300
H625        H  0.99103580  0.90723762  0.48506292     0.14600
H626        H  0.03365655  0.90455588  0.48695645     0.14600
H627        H  0.99856450  0.06342840  0.49106587     0.14600
H628        H  0.04123010  0.06083725  0.49166243     0.14600
H629        H  0.93388489  0.96592896  0.51542326     0.12900
H630        H  0.93587414  0.00850573  0.51781192     0.12900
H631        H  0.09415116  0.95753561  0.52167728     0.12900
H632        H  0.09611412  0.00017040  0.52298512     0.12900
H633        H  0.01445041  0.96454054  0.51490257     0.26100
H634        H  0.01602674  0.00197634  0.51690079     0.26100
N635        N  0.51912156  0.98448337  0.03594714    -0.36600
N636        N  0.51706258  0.95095148  0.00336534    -0.57200
N637        N  0.52036811  0.98375152  0.96924345    -0.36600
N638        N  0.52074448  0.01725323  0.00192581    -0.57200
C639        C  0.51363705  0.96736233  0.04850975     0.27000
C640        C  0.51482713  0.00263163  0.04745713     0.27000
C641        C  0.51478567  0.96627051  0.95731108     0.27000
C642        C  0.51721886  0.00151869  0.95671844     0.27000
C643        C  0.51877231  0.93816582  0.02112434     0.35600
C644        C  0.51871602  0.93777426  0.98593822     0.35600
C645        C  0.52487148  0.02970986  0.01937887     0.35600
C646        C  0.52590175  0.02928628  0.98440278     0.35600
C647        C  0.50618639  0.97479952  0.06840953    -0.21900
C648        C  0.50659981  0.99700076  0.06759571    -0.21900
C649        C  0.50853217  0.97302965  0.93675980    -0.21900
C650        C  0.50983962  0.99523517  0.93648194    -0.21900
C651        C  0.52108907  0.91672266  0.01489968    -0.23000
C652        C  0.52103100  0.91647286  0.99269503    -0.23000
C653        C  0.53289777  0.04965881  0.01295601    -0.23000
C654        C  0.53356435  0.04938472  0.99074804    -0.23000
C655        C  0.51630476  0.94528725  0.04282484    -0.18300
C656        C  0.51951269  0.02405899  0.04085370    -0.18300
C657        C  0.52167472  0.02315678  0.96281346    -0.18300
C658        C  0.51636889  0.94436640  0.96405618    -0.18300
H659        H  0.50104193  0.96542494  0.08227315     0.14600
H660        H  0.50175208  0.00773580  0.08058872     0.14600
H661        H  0.50359629  0.96311656  0.92320807     0.14600
H662        H  0.50595913  0.00552382  0.92281516     0.14600
H663        H  0.52200666  0.90255932  0.02518105     0.12900
H664        H  0.52198075  0.90208669  0.98274923     0.12900
H665        H  0.53742027  0.06313668  0.02318862     0.12900
H666        H  0.53869091  0.06261102  0.98043989     0.12900
H667        H  0.52765345  0.98378976  0.02144211     0.26100
H668        H  0.52802766  0.98336796  0.98421366     0.26100
N669        N  0.01547158  0.48671607  0.02987626    -0.36600
N670        N  0.04873268  0.48848859  0.99645471    -0.57200
N671        N  0.01506580  0.49025912  0.96320856    -0.36600
N672        N  0.98194655  0.48643266  0.99669748    -0.57200
C673        C  0.03338218  0.48260717  0.04186501     0.27000
C674        C  0.99803551  0.48150830  0.04214606     0.27000
C675        C  0.03291306  0.48720364  0.95074534     0.27000
C676        C  0.99754244  0.48573788  0.95078814     0.27000
C677        C  0.06129434  0.49171835  0.01410649     0.35600
C678        C  0.06105400  0.49348222  0.97903009     0.35600
C679        C  0.96905658  0.48730028  0.01442924     0.35600
C680        C  0.96879319  0.48855550  0.97928793     0.35600
C681        C  0.02723603  0.47478542  0.06203145    -0.21900
C682        C  0.00498507  0.47433593  0.06230705    -0.21900
C683        C  0.02661571  0.48104335  0.93008641    -0.21900
C684        C  0.00439771  0.48043556  0.93001551    -0.21900
C685        C  0.08164951  0.49887766  0.00786699    -0.23000
C686        C  0.08150381  0.49996642  0.98564272    -0.23000
C687        C  0.94758152  0.48962890  0.00820147    -0.23000
C688        C  0.94740912  0.49036036  0.98602666    -0.23000
C689        C  0.05505053  0.48705997  0.03567612    -0.18300
C690        C  0.97604826  0.48419025  0.03607441    -0.18300
C691        C  0.97551944  0.48699909  0.95738266    -0.18300
C692        C  0.05471048  0.49055396  0.95720215    -0.18300
H693        H  0.03766908  0.47017008  0.07535693     0.14600
H694        H  0.99516904  0.46940470  0.07596867     0.14600
H695        H  0.03689113  0.47740642  0.91633603     0.14600
H696        H  0.99457245  0.47649100  0.91607690     0.14600
H697        H  0.09525179  0.50275058  0.01821808     0.12900
H698        H  0.09497762  0.50479648  0.97549154     0.12900
H699        H  0.93334762  0.49004797  0.01845341     0.12900
H700        H  0.93301208  0.49147396  0.97609800     0.12900
H701        H  0.01509542  0.49497412  0.01523646     0.26100
H702        H  0.01480985  0.49700744  0.97859923     0.26100
N703        N  0.55002793  0.48209973  0.00813176    -0.36600
N704        N  0.51645599  0.51452462  0.00895866    -0.57200
N705        N  0.48350428  0.48056585  0.00688282    -0.36600
N706        N  0.51704475  0.44825388  0.00412633    -0.57200
C707        C  0.56186513  0.50024825  0.00488449     0.27000
C708        C  0.56223336  0.46517592  0.00143682     0.27000
C709        C  0.47129494  0.49832068  0.00287862     0.27000
C710        C  0.47148055  0.46304108  0.00155993     0.27000
C711        C  0.53351478  0.52723596  0.01399958     0.35600
C712        C  0.49850223  0.52648266  0.01259925     0.35600
C713        C  0.53496105  0.43586312  0.00631572     0.35600
C714        C  0.49988215  0.43494371  0.00690857     0.35600
C715        C  0.58188705  0.49474895  0.99622136    -0.21900
C716        C  0.58212305  0.47260644  0.99405834    -0.21900
C717        C  0.45116817  0.49203637  0.99516598    -0.21900
C718        C  0.45118845  0.46980268  0.99455515    -0.21900
C719        C  0.52637202  0.54731244  0.02106105    -0.23000
C720        C  0.50414147  0.54687082  0.02006905    -0.23000
C721        C  0.52919310  0.41456590  0.01038092    -0.23000
C722        C  0.50698263  0.41395370  0.01064526    -0.23000
C723        C  0.55536803  0.52154742  0.01029569    -0.18300
C724        C  0.55639080  0.44312216  0.00294964    -0.18300
C725        C  0.47798346  0.44118187  0.00417768    -0.18300
C726        C  0.47726093  0.51995318  0.00734491    -0.18300
H727        H  0.59498395  0.50555371  0.99187612     0.14600
H728        H  0.59546875  0.46305612  0.98781991     0.14600
H729        H  0.43765846  0.50237381  0.99083953     0.14600
H730        H  0.43760576  0.45991507  0.98969149     0.14600
H731        H  0.53615131  0.56099693  0.02592496     0.12900
H732        H  0.49336576  0.56014427  0.02403556     0.12900
H733        H  0.53986348  0.40080376  0.01254375     0.12900
H734        H  0.49727806  0.39955533  0.01285396     0.12900
H735        H  0.53549208  0.48106857  0.01660094     0.26100
H736        H  0.49818462  0.48037255  0.01509374     0.26100
N737        N  0.01926554  0.51772748  0.50439979    -0.36600
N738        N  0.02053119  0.48473548  0.47022504    -0.57200
N739        N  0.02059276  0.45135560  0.50293158    -0.36600
N740        N  0.01747759  0.48429609  0.53714891    -0.57200
C741        C  0.01562840  0.53007875  0.48664973     0.27000
C742        C  0.01440455  0.52992289  0.52200948     0.27000
C743        C  0.01752102  0.43909535  0.48497132     0.27000
C744        C  0.01599109  0.43883775  0.52032385     0.27000
C745        C  0.02363289  0.50259815  0.45799765     0.35600
C746        C  0.02447804  0.46756144  0.45721577     0.35600
C747        C  0.01979709  0.50162610  0.55036488     0.35600
C748        C  0.02033092  0.46650514  0.54960584     0.35600
C749        C  0.00856209  0.55041632  0.49300678    -0.21900
C750        C  0.00799344  0.55040768  0.51524971    -0.21900
C751        C  0.01124823  0.41842420  0.49114629    -0.21900
C752        C  0.01010474  0.41832787  0.51337121    -0.21900
C753        C  0.02948565  0.49676991  0.43709450    -0.23000
C754        C  0.02983913  0.47460328  0.43654156    -0.23000
C755        C  0.02371104  0.49474447  0.57140395    -0.23000
C756        C  0.02424524  0.47255127  0.57088153    -0.23000
C757        C  0.01978478  0.52406275  0.46490829    -0.18300
C758        C  0.01694175  0.52348650  0.54396081    -0.18300
C759        C  0.01834243  0.44485667  0.54235478    -0.18300
C760        C  0.02149187  0.44568585  0.46328779    -0.18300
H761        H  0.00457359  0.56403833  0.48269878     0.14600
H762        H  0.00362256  0.56417551  0.52513843     0.14600
H763        H  0.00810039  0.40461986  0.48086686     0.14600
H764        H  0.00574156  0.40454885  0.52329655     0.14600
H765        H  0.03277145  0.50736221  0.42350316     0.12900
H766        H  0.03327585  0.46491060  0.42235520     0.12900
H767        H  0.02573716  0.50457342  0.58575702     0.12900
H768        H  0.02696798  0.46209008  0.58469565     0.12900
H769        H  0.02703619  0.50282459  0.50449412     0.26100
H770        H  0.02786589  0.46646737  0.50350169     0.26100
N771        N  0.55361296  0.98225583  0.49781799    -0.36600
N772        N  0.52003106  0.97922609  0.46475682    -0.57200
N773        N  0.48704356  0.98508279  0.49823989    -0.36600
N774        N  0.52069482  0.98551853  0.53129383    -0.57200
C775        C  0.56556212  0.97612535  0.48049415     0.27000
C776        C  0.56586639  0.97877524  0.51567123     0.27000
C777        C  0.47444463  0.97961912  0.48112787     0.27000
C778        C  0.47485833  0.98281725  0.51639431     0.27000
C779        C  0.53761542  0.98070454  0.45169709     0.35600
C780        C  0.50245675  0.98192035  0.45191715     0.35600
C781        C  0.53849147  0.98889465  0.54357258     0.35600
C782        C  0.50345525  0.99062583  0.54381025     0.35600
C783        C  0.58570394  0.96886388  0.48738209    -0.21900
C784        C  0.58587318  0.97046631  0.50958389    -0.21900
C785        C  0.45386745  0.97430595  0.48852318    -0.21900
C786        C  0.45420634  0.97609654  0.51071740    -0.21900
C787        C  0.53117885  0.98404198  0.43044435    -0.23000
C788        C  0.50894778  0.98459793  0.43054326    -0.23000
C789        C  0.53255259  0.99623056  0.56396055    -0.23000
C790        C  0.51034931  0.99736947  0.56410093    -0.23000
C791        C  0.55937406  0.97821789  0.45853500    -0.18300
C792        C  0.55990641  0.98385007  0.53721422    -0.18300
C793        C  0.48157338  0.98738939  0.53788427    -0.18300
C794        C  0.48062614  0.98056797  0.45897687    -0.18300
H795        H  0.59896087  0.96308999  0.47741900     0.14600
H796        H  0.59930465  0.96616622  0.52001877     0.14600
H797        H  0.43989689  0.96969274  0.47903811     0.14600
H798        H  0.44065719  0.97294098  0.52141159     0.14600
H799        H  0.54138058  0.98571263  0.41626446     0.12900
H800        H  0.49880584  0.98659410  0.41638790     0.12900
H801        H  0.54309736  0.00007266  0.57742674     0.12900
H802        H  0.50040569  0.00225057  0.57771988     0.12900
H803        H  0.53903815  0.99065604  0.49724042     0.26100
H804        H  0.50228579  0.99211042  0.49737047     0.26100
C805        C  0.15552041  0.11778421  0.50278698    -0.01300
C806        C  0.13907934  0.11964394  0.51833930    -0.09300
C807        C  0.12303264  0.10393244  0.52019893    -0.18200
C808        C  0.12286010  0.08564247  0.50645314     0.04200
C809        C  0.13946874  0.08388283  0.49052014     0.18400
C810        C  0.15558891  0.09986574  0.48885307    -0.19600
C811        C  0.13981510  0.06624858  0.47628687    -0.20900
C812        C  0.12384111  0.05042642  0.47733256    -0.19400
C813        C  0.10727134  0.05172097  0.49279602     0.19800
C814        C  0.10667745  0.06919972  0.50778581     0.01900
C815        C  0.08987010  0.06946033  0.52342679    -0.14100
C816        C  0.07407728  0.05336569  0.52378275    -0.11800
C817        C  0.07444125  0.03657858  0.50862027     0.01500
C818        C  0.09115227  0.03570662  0.49326831    -0.24000
H819        H  0.13842225  0.13356968  0.52898711     0.09500
H820        H  0.11088722  0.10675432  0.53242737     0.13000
H821        H  0.16831469  0.09827627  0.47681491     0.11800
H822        H  0.15242781  0.06477938  0.46412715     0.13000
H823        H  0.12443858  0.03708615  0.46594211     0.12000
H824        H  0.08841908  0.08184270  0.53561831     0.09100
H825        H  0.06129924  0.05412617  0.53582781     0.12300
H826        H  0.09139383  0.02265125  0.48152207     0.14200
C827        C  0.07200915  0.48672034  0.05283488    -0.01300
C828        C  0.07081592  0.50129555  0.07012194    -0.09300
C829        C  0.08605617  0.50069068  0.08679049    -0.18200
C830        C  0.10323975  0.48547802  0.08659065     0.04200
C831        C  0.10455094  0.47090096  0.06878480     0.18400
C832        C  0.08892040  0.47155633  0.05221920    -0.19600
C833        C  0.12149593  0.45583917  0.06758177    -0.20900
C834        C  0.13737797  0.45509777  0.08356047    -0.19400
C835        C  0.13659426  0.46925539  0.10125649     0.19800
C836        C  0.11934287  0.48445077  0.10320170     0.01900
C837        C  0.11906590  0.49806313  0.12162890    -0.14100
C838        C  0.13565307  0.49723865  0.13694078    -0.11800
C839        C  0.15295152  0.48274363  0.13461009     0.01500
C840        C  0.15312734  0.46850232  0.11691767    -0.24000
H841        H  0.05786106  0.51314991  0.07076735     0.09500
H842        H  0.08399773  0.51247862  0.09947898     0.13000
H843        H  0.08982103  0.46023657  0.03881596     0.11800
H844        H  0.12259579  0.44468863  0.05406551     0.13000
H845        H  0.15042346  0.44341749  0.08201777     0.12000
H846        H  0.10630078  0.50957516  0.12470600     0.09100
H847        H  0.13490223  0.50798349  0.15079584     0.12300
H848        H  0.16645013  0.45717132  0.11506254     0.14200
C849        C  0.51796219  0.04164098  0.05712859    -0.01300
C850        C  0.50270504  0.05821964  0.05456675    -0.09300
C851        C  0.50103562  0.07477321  0.06983963    -0.18200
C852        C  0.51459523  0.07509439  0.08832219     0.04200
C853        C  0.52986234  0.05796852  0.09087309     0.18400
C854        C  0.53153321  0.04161731  0.07523598    -0.19600
C855        C  0.54337478  0.05720811  0.10902779    -0.20900
C856        C  0.54220713  0.07321025  0.12474598    -0.19400
C857        C  0.52769965  0.09049632  0.12253131     0.19800
C858        C  0.51365169  0.09175524  0.10432419     0.01900
C859        C  0.49951515  0.10977018  0.10286103    -0.14100
C860        C  0.49968886  0.12599992  0.11860365    -0.11800
C861        C  0.51375449  0.12474302  0.13638552     0.01500
C862        C  0.52742027  0.10670837  0.13837342    -0.24000
H863        H  0.49200478  0.05829882  0.04064796     0.09500
H864        H  0.48890574  0.08695746  0.06677204     0.13000
H865        H  0.54332467  0.02870570  0.07715347     0.11800
H866        H  0.55494142  0.04413599  0.11108817     0.13000
H867        H  0.55293152  0.07219593  0.13861968     0.12000
H868        H  0.48840656  0.11201307  0.08958484     0.09100
H869        H  0.48907169  0.13983468  0.11656893     0.12300
H870        H  0.53799234  0.10527417  0.15233265     0.14200
C871        C  0.57215110  0.53880103  0.01062050    -0.01300
C872        C  0.58921955  0.53776746  0.02547788    -0.09300
C873        C  0.60598206  0.55291159  0.02483193    -0.18200
C874        C  0.60619408  0.56963198  0.00911974     0.04200
C875        C  0.58837182  0.57099221  0.99455346     0.18400
C876        C  0.57165574  0.55559532  0.99537113    -0.19600
C877        C  0.58744745  0.58757064  0.97910786    -0.20900
C878        C  0.60392233  0.60283473  0.97769828    -0.19400
C879        C  0.62188592  0.60173542  0.99150248     0.19800
C880        C  0.62338955  0.58503056  0.00731908     0.01900
C881        C  0.64214968  0.58437373  0.02047424    -0.14100
C882        C  0.65838694  0.59995440  0.01838974    -0.11800
C883        C  0.65660320  0.61667786  0.00314256     0.01500
C884        C  0.63836095  0.61731754  0.98959816    -0.24000
H885        H  0.58970289  0.52494271  0.03746115     0.09500
H886        H  0.61853687  0.55104515  0.03681205     0.13000
H887        H  0.55839203  0.55638692  0.98386721     0.11800
H888        H  0.57386627  0.58875106  0.96803285     0.13000
H889        H  0.60267681  0.61551251  0.96560286     0.12000
H890        H  0.64484934  0.57196390  0.03245165     0.09100
H891        H  0.67253307  0.59883362  0.02872186     0.12300
H892        H  0.63677108  0.63024188  0.97779796     0.14200
C893        C  0.65168903  0.34220552  0.99666495    -0.01300
C894        C  0.63622479  0.34365657  0.98009110    -0.09300
C895        C  0.62101274  0.36038687  0.97981083    -0.18200
C896        C  0.62055337  0.37618560  0.99638030     0.04200
C897        C  0.63613857  0.37454422  0.01326115     0.18400
C898        C  0.65163804  0.35791591  0.01306805    -0.19600
C899        C  0.63603973  0.38935016  0.03041395    -0.20900
C900        C  0.62054143  0.40564832  0.03137081    -0.19400
C901        C  0.60502817  0.40776458  0.01499316     0.19800
C902        C  0.60497755  0.39328920  0.99705311     0.01900
C903        C  0.58924958  0.39652570  0.98067050    -0.14100
C904        C  0.57382397  0.41295485  0.98245775    -0.11800
C905        C  0.57363380  0.42661262  0.00049641     0.01500
C906        C  0.58938971  0.42418421  0.01656250    -0.24000
H907        H  0.63559253  0.33157043  0.96740472     0.09500
H908        H  0.60958399  0.36021990  0.96662608     0.13000
H909        H  0.66375712  0.35728629  0.02576283     0.11800
H910        H  0.64785042  0.38812826  0.04335702     0.13000
H911        H  0.62068000  0.41667074  0.04503384     0.12000
H912        H  0.58839058  0.38665558  0.96631475     0.09100
H913        H  0.56177914  0.41489493  0.96982949     0.12300
H914        H  0.58919570  0.43492739  0.03046466     0.14200
C915        C  0.37921993  0.61830715  0.99914774    -0.01300
C916        C  0.39411918  0.61633021  0.98206873    -0.09300
C917        C  0.40999832  0.60017002  0.98227898    -0.18200
C918        C  0.41179827  0.58558897  0.99989301     0.04200
C919        C  0.39664727  0.58761807  0.01713122     0.18400
C920        C  0.38038575  0.60346808  0.01637121    -0.19600
C921        C  0.39794715  0.57402991  0.03524872    -0.20900
C922        C  0.41412207  0.55845395  0.03673045    -0.19400
C923        C  0.42918764  0.55587720  0.01998652     0.19800
C924        C  0.42819660  0.56927925  0.00121101     0.01900
C925        C  0.44370180  0.56576031  0.98464887    -0.14100
C926        C  0.45959700  0.54981815  0.98681779    -0.11800
C927        C  0.46046040  0.53692478  0.00540013     0.01500
C928        C  0.44526336  0.53991081  0.02190597    -0.24000
H929        H  0.39392503  0.62764674  0.96866525     0.09500
H930        H  0.42090933  0.59985728  0.96863844     0.13000
H931        H  0.36863580  0.60424363  0.02941614     0.11800
H932        H  0.38649969  0.57561880  0.04849936     0.13000
H933        H  0.41481728  0.54830902  0.05106015     0.12000
H934        H  0.44394067  0.57495406  0.96980888     0.09100
H935        H  0.47125615  0.54742691  0.97388481     0.12300
H936        H  0.44601875  0.52974245  0.03623148     0.14200
C937        C  0.73403725  0.69682615  0.85154315    -0.01300
C938        C  0.71214749  0.69808690  0.85747262    -0.09300
C939        C  0.70546013  0.69279948  0.87845545    -0.18200
C940        C  0.72057161  0.68619019  0.89440503     0.04200
C941        C  0.74287545  0.68587187  0.88860392     0.18400
C942        C  0.74934312  0.69088804  0.86730686    -0.19600
C943        C  0.75858544  0.68045465  0.90406948    -0.20900
C944        C  0.75260425  0.67498146  0.92513536    -0.19400
C945        C  0.73072510  0.67429628  0.93115479     0.19800
C946        C  0.71437301  0.67979425  0.91582780     0.01900
C947        C  0.69249912  0.67809418  0.92245096    -0.14100
C948        C  0.68711766  0.67103288  0.94324614    -0.11800
C949        C  0.70322135  0.66565168  0.95831275     0.01500
C950        C  0.72504836  0.66764782  0.95227195    -0.24000
H951        H  0.70000952  0.70287014  0.84571941     0.09500
H952        H  0.68834884  0.69416416  0.88168465     0.13000
H953        H  0.76638974  0.69027707  0.86303642     0.11800
H954        H  0.77564155  0.68040752  0.89983037     0.13000
H955        H  0.76517214  0.67083098  0.93668670     0.12000
H956        H  0.67912014  0.68162408  0.91180825     0.09100
H957        H  0.67014852  0.66974330  0.94760397     0.12300
H958        H  0.73759436  0.66329435  0.96378693     0.14200
C959        C  0.65666131  0.98139219  0.63702630    -0.01300
C960        C  0.64028228  0.96571879  0.63735364    -0.09300
C961        C  0.62468814  0.96493497  0.62103585    -0.18200
C962        C  0.62482807  0.98003724  0.60379669     0.04200
C963        C  0.64154024  0.99586013  0.60347328     0.18400
C964        C  0.65729338  0.99627864  0.61987175    -0.19600
C965        C  0.64228420  0.01137104  0.58694564    -0.20900
C966        C  0.62648164  0.01183086  0.57091569    -0.19400
C967        C  0.60970773  0.99662144  0.57086970     0.19800
C968        C  0.60879261  0.98027412  0.58711594     0.01900
C969        C  0.59175587  0.96500010  0.58602004    -0.14100
C970        C  0.57605333  0.96627624  0.56982835    -0.11800
C971        C  0.57682324  0.98268568  0.55425165     0.01500
C972        C  0.59374192  0.99771553  0.55469854    -0.24000
H973        H  0.63923670  0.95419230  0.65055069     0.09500
H974        H  0.61254738  0.95253212  0.62262919     0.13000
H975        H  0.67011724  0.00824166  0.61925071     0.11800
H976        H  0.65501425  0.02343661  0.58658419     0.13000
H977        H  0.62733757  0.02423413  0.55850737     0.12000
H978        H  0.59008586  0.95186133  0.59737794     0.09100
H979        H  0.56317249  0.95438325  0.56942542     0.12300
H980        H  0.59436049  0.01030709  0.54244991     0.14200
C981        C  0.70625695  0.94288217  0.68790732    -0.01300
C982        C  0.70709988  0.93868700  0.71018014    -0.09300
C983        C  0.71343654  0.91833421  0.71780116    -0.18200
C984        C  0.71909262  0.90155067  0.70320960     0.04200
C985        C  0.71902192  0.90634282  0.68066139     0.18400
C986        C  0.71272985  0.92681588  0.67330844    -0.19600
C987        C  0.72472768  0.89055343  0.66546193    -0.20900
C988        C  0.73010084  0.86980159  0.67210887    -0.19400
C989        C  0.72973754  0.86434181  0.69409151     0.19800
C990        C  0.72436532  0.88010607  0.71003563     0.01900
C991        C  0.72397028  0.87351290  0.73199973    -0.14100
C992        C  0.72812466  0.85205198  0.73773032    -0.11800
C993        C  0.73314401  0.83664939  0.72185776     0.01500
C994        C  0.73428887  0.84299159  0.70013762    -0.24000
H995        H  0.70214840  0.95096625  0.72170648     0.09500
H996        H  0.71340106  0.91616721  0.73513023     0.13000
H997        H  0.71246803  0.93018878  0.65604809     0.11800
H998        H  0.72476257  0.89420537  0.64827087     0.13000
H999        H  0.73421049  0.85783204  0.65992809     0.12000
H1000       H  0.72017305  0.88442553  0.74508172     0.09100
H1001       H  0.72743308  0.84749867  0.75468155     0.12300
H1002       H  0.73811995  0.83110273  0.68777088     0.14200
C1003       C  0.72634233  0.26450200  0.84769735    -0.01300
C1004       C  0.72633399  0.28638731  0.85346694    -0.09300
C1005       C  0.72252937  0.29272978  0.87480287    -0.18200
C1006       C  0.71883292  0.27726500  0.89132343     0.04200
C1007       C  0.71885195  0.25501794  0.88544772     0.18400
C1008       C  0.72251722  0.24885368  0.86377841    -0.19600
C1009       C  0.71503658  0.23911759  0.90120522    -0.20900
C1010       C  0.71051230  0.24487839  0.92257414    -0.19400
C1011       C  0.70992604  0.26667734  0.92878251     0.19800
C1012       C  0.71463533  0.28313752  0.91332746     0.01900
C1013       C  0.71464710  0.30483979  0.92050450    -0.14100
C1014       C  0.70872977  0.31008277  0.94162168    -0.11800
C1015       C  0.70263867  0.29401438  0.95643250     0.01500
C1016       C  0.70403674  0.27222429  0.95017420    -0.24000
H1017       H  0.72903248  0.29877808  0.84132367     0.09500
H1018       H  0.72239280  0.30990913  0.87772012     0.13000
H1019       H  0.72258685  0.23183834  0.85946648     0.11800
H1020       H  0.71519376  0.22211098  0.89689689     0.13000
H1021       H  0.70718723  0.23220388  0.93426580     0.12000
H1022       H  0.71885103  0.31823912  0.91016263     0.09100
H1023       H  0.70838271  0.32698956  0.94628411     0.12300
H1024       H  0.69950550  0.25967561  0.96160318     0.14200
C1025       C  0.70373217  0.02391711  0.68713131    -0.01300
C1026       C  0.72570812  0.02911870  0.68538749    -0.09300
C1027       C  0.73296091  0.04994380  0.69029720    -0.18200
C1028       C  0.71831973  0.06617297  0.69731524     0.04200
C1029       C  0.69622412  0.06029686  0.70026243     0.18400
C1030       C  0.68912479  0.03942140  0.69490227    -0.19600
C1031       C  0.68127790  0.07536397  0.70825990    -0.20900
C1032       C  0.68772670  0.09632476  0.71316750    -0.19400
C1033       C  0.70914991  0.10288218  0.70965933     0.19800
C1034       C  0.72473120  0.08799413  0.70145563     0.01900
C1035       C  0.74588453  0.09576133  0.69728311    -0.14100
C1036       C  0.75136714  0.11729866  0.70138547    -0.11800
C1037       C  0.73608782  0.13178138  0.70995459     0.01500
C1038       C  0.71499282  0.12438453  0.71406465    -0.24000
H1039       H  0.73720657  0.01720663  0.67950341     0.09500
H1040       H  0.75007749  0.05283865  0.68840991     0.13000
H1041       H  0.67213258  0.03522810  0.69654753     0.11800
H1042       H  0.66446876  0.07090730  0.71073284     0.13000
H1043       H  0.67576861  0.10760716  0.71938983     0.12000
H1044       H  0.75846432  0.08570156  0.69050593     0.09100
H1045       H  0.76773578  0.12258991  0.69790419     0.12300
H1046       H  0.70292454  0.13548142  0.72042951     0.14200
C1047       C  0.01709801  0.34152306  0.63562322    -0.01300
C1048       C  0.03342063  0.34182402  0.61978751    -0.09300
C1049       C  0.03444895  0.35841858  0.60446613    -0.18200
C1050       C  0.01892589  0.37529288  0.60426661     0.04200
C1051       C  0.00208933  0.37466837  0.61999769     0.18400
C1052       C  0.00150048  0.35810492  0.63557649    -0.19600
C1053       C  0.98586996  0.39054643  0.62007893    -0.20900
C1054       C  0.98591674  0.40704023  0.60475054    -0.19400
C1055       C  0.00243620  0.40831873  0.58925452     0.19800
C1056       C  0.01936019  0.39262511  0.58893218     0.01900
C1057       C  0.03603543  0.39507262  0.57335902    -0.14100
C1058       C  0.03568962  0.41214968  0.55857291    -0.11800
C1059       C  0.01876157  0.42722247  0.55872556     0.01500
C1060       C  0.00216798  0.42526179  0.57407294    -0.24000
H1061       H  0.04539260  0.32900731  0.61901192     0.09500
H1062       H  0.04741521  0.35736226  0.59280533     0.13000
H1063       H  0.98894097  0.35832664  0.64787296     0.11800
H1064       H  0.97293481  0.39010039  0.63197675     0.13000
H1065       H  0.97301980  0.41897804  0.60512015     0.12000
H1066       H  0.04966517  0.38420359  0.57227750     0.09100
H1067       H  0.04867468  0.41358517  0.54681833     0.12300
H1068       H  0.98906289  0.43699471  0.57414100     0.14200
C1069       C  0.86619233  0.27066386  0.71649437    -0.01300
C1070       C  0.87311907  0.26422228  0.69582459    -0.09300
C1071       C  0.89446631  0.26737324  0.68912176    -0.18200
C1072       C  0.90985848  0.27712767  0.70294674     0.04200
C1073       C  0.90303691  0.28304757  0.72416724     0.18400
C1074       C  0.88135306  0.27995690  0.73066638    -0.19600
C1075       C  0.91788412  0.29209535  0.73872145    -0.20900
C1076       C  0.93928407  0.29573867  0.73254203    -0.19400
C1077       C  0.94629538  0.29079923  0.71152306     0.19800
C1078       C  0.93167216  0.28141367  0.69639451     0.01900
C1079       C  0.93934658  0.27735387  0.67515075    -0.14100
C1080       C  0.96035567  0.28299571  0.66905582    -0.11800
C1081       C  0.97455294  0.29241238  0.68393223     0.01500
C1082       C  0.96765401  0.29584885  0.70528379    -0.24000
H1083       H  0.86191721  0.25677275  0.68457798     0.09500
H1084       H  0.89837775  0.26188644  0.67301839     0.13000
H1085       H  0.87632234  0.28472063  0.74682150     0.11800
H1086       H  0.91288359  0.29648535  0.75498519     0.13000
H1087       H  0.95031619  0.30289786  0.74415599     0.12000
H1088       H  0.92935633  0.27046104  0.66264006     0.09100
H1089       H  0.96548713  0.28030764  0.65246520     0.12300
H1090       H  0.97861664  0.30340116  0.71673016     0.14200
C1091       C  0.01616607  0.54052715  0.56107931    -0.01300
C1092       C  0.99679403  0.55148977  0.56556826    -0.09300
C1093       C  0.99623437  0.56835078  0.58065263    -0.18200
C1094       C  0.01503448  0.57432848  0.59230971     0.04200
C1095       C  0.03431912  0.56220450  0.58864606     0.18400
C1096       C  0.03485442  0.54588664  0.57277450    -0.19600
C1097       C  0.05290825  0.56636768  0.60092703    -0.20900
C1098       C  0.05275471  0.58229866  0.61684836    -0.19400
C1099       C  0.03429607  0.59508173  0.62027217     0.19800
C1100       C  0.01533252  0.59162921  0.60770769     0.01900
C1101       C  0.99768191  0.60591692  0.61081037    -0.14100
C1102       C  0.99869623  0.62263233  0.62602850    -0.11800
C1103       C  0.01709688  0.62551032  0.63911362     0.01500
C1104       C  0.03480819  0.61144959  0.63608631    -0.24000
H1105       H  0.98209105  0.54722137  0.55699892     0.09500
H1106       H  0.98077150  0.57611521  0.58315570     0.12600
H1107       H  0.04979248  0.53715859  0.56958209     0.11800
H1108       H  0.06759481  0.55704258  0.59839443     0.13000
H1109       H  0.06733180  0.58491495  0.62627599     0.12000
H1110       H  0.98308748  0.60497116  0.60126732     0.09100
H1111       H  0.98500729  0.63354667  0.62722777     0.12300
H1112       H  0.04910921  0.61305478  0.64611531     0.14200
C1113       C  0.87125284  0.70643776  0.71740310    -0.01300
C1114       C  0.87953368  0.68724691  0.72629461    -0.09300
C1115       C  0.90100652  0.68103396  0.72265067    -0.18200
C1116       C  0.91502798  0.69384223  0.70981559     0.04200
C1117       C  0.90681049  0.71370126  0.70150021     0.18400
C1118       C  0.88516238  0.71975497  0.70529650    -0.19600
C1119       C  0.92014143  0.72726836  0.68914789    -0.20900
C1120       C  0.94136423  0.72130711  0.68439706    -0.19400
C1121       C  0.94970175  0.70149327  0.69162766     0.19800
C1122       C  0.93671513  0.68748826  0.70455599     0.01900
C1123       C  0.94575707  0.66738603  0.71093760    -0.14100
C1124       C  0.96639773  0.66113802  0.70400551    -0.11800
C1125       C  0.97887473  0.67486459  0.69103216     0.01500
C1126       C  0.97070049  0.69522184  0.68531059    -0.24000
H1127       H  0.86931569  0.67679832  0.73601075     0.09500
H1128       H  0.90608269  0.66605757  0.73003851     0.13000
H1129       H  0.87908740  0.73479711  0.69854250     0.11800
H1130       H  0.91403026  0.74250516  0.68289744     0.13000
H1131       H  0.95116695  0.73205230  0.67455673     0.12000
H1132       H  0.93705117  0.65581385  0.72066822     0.09100
H1133       H  0.97252838  0.64529528  0.70844493     0.12300
H1134       H  0.98031723  0.70571909  0.67500338     0.14200
C1135       C  0.30283896  0.70285163  0.85319965    -0.01300
C1136       C  0.30951847  0.71852036  0.86822118    -0.09300
C1137       C  0.31326759  0.71301834  0.88992013    -0.18200
C1138       C  0.31082114  0.69143875  0.89724432     0.04200
C1139       C  0.30392471  0.67568862  0.88192972     0.18400
C1140       C  0.29970331  0.68155564  0.86035523    -0.19600
C1141       C  0.30187248  0.65397554  0.88802036    -0.20900
C1142       C  0.30738882  0.64732006  0.90878900    -0.19400
C1143       C  0.31462837  0.66228705  0.92413841     0.19800
C1144       C  0.31575346  0.68468773  0.91890076     0.01900
C1145       C  0.32220774  0.69916273  0.93546609    -0.14100
C1146       C  0.32859974  0.69149068  0.95584930    -0.11800
C1147       C  0.32882577  0.66924992  0.96031597     0.01500
C1148       C  0.32126305  0.65483148  0.94456906    -0.24000
H1149       H  0.31192784  0.73514409  0.86317794     0.09500
H1150       H  0.31859775  0.72587696  0.90042940     0.13000
H1151       H  0.29462001  0.66926310  0.84890525     0.11800
H1152       H  0.29654644  0.64192240  0.87643956     0.13000
H1153       H  0.30624609  0.63027046  0.91279099     0.12000
H1154       H  0.32272455  0.71643979  0.93307116     0.09100
H1155       H  0.33415665  0.70294026  0.96790947     0.12300
H1156       H  0.32089043  0.63764106  0.94815188     0.14200
C1157       C  0.05985728  0.67778452  0.68417105    -0.01300
C1158       C  0.07459845  0.68562832  0.66882705    -0.09300
C1159       C  0.09578204  0.69090049  0.67477249    -0.18200
C1160       C  0.10307879  0.68797428  0.69633405     0.04200
C1161       C  0.08782200  0.68052326  0.71195260     0.18400
C1162       C  0.06637455  0.67586726  0.70583132    -0.19600
C1163       C  0.09426274  0.67696944  0.73341425    -0.20900
C1164       C  0.11571448  0.67999884  0.73960942    -0.19400
C1165       C  0.13123113  0.68694549  0.72457497     0.19800
C1166       C  0.12506533  0.69148039  0.70281947     0.01900
C1167       C  0.14127522  0.69899552  0.68845581    -0.14100
C1168       C  0.16269868  0.70146749  0.69528575    -0.11800
C1169       C  0.16884826  0.69646755  0.71658904     0.01500
C1170       C  0.15293715  0.68928136  0.73117440    -0.24000
H1171       H  0.06979119  0.68727420  0.65201648     0.09500
H1172       H  0.10620571  0.69656721  0.66196141     0.13000
H1173       H  0.05503331  0.66958125  0.71770860     0.11800
H1174       H  0.08271815  0.67133648  0.74540543     0.13000
H1175       H  0.12024001  0.67670202  0.75626250     0.12000
H1176       H  0.13794928  0.70315572  0.67182815     0.09100
H1177       H  0.17456540  0.70722185  0.68368812     0.12300
H1178       H  0.15739669  0.68565791  0.74778502     0.14200
C1179       C  0.46507543  0.98694982  0.55551224    -0.01300
C1180       C  0.46635751  0.97105231  0.57160650    -0.09300
C1181       C  0.45114642  0.97023812  0.58830603    -0.18200
C1182       C  0.43388438  0.98531713  0.58934710     0.04200
C1183       C  0.43253954  0.00133712  0.57280272     0.18400
C1184       C  0.44816100  0.00209928  0.55618087    -0.19600
C1185       C  0.41551935  0.01635925  0.57286480    -0.20900
C1186       C  0.39962204  0.01568193  0.58887552    -0.19400
C1187       C  0.40046987  0.00011325  0.60537223     0.19800
C1188       C  0.41776058  0.98486734  0.60600274     0.01900
C1189       C  0.41810657  0.96978100  0.62325595    -0.14100
C1190       C  0.40171504  0.96946916  0.63883092    -0.11800
C1191       C  0.38439140  0.98412002  0.63788215     0.01500
C1192       C  0.38401708  0.99958382  0.62118225    -0.24000
H1193       H  0.47926650  0.95913568  0.57119447     0.09500
H1194       H  0.45325570  0.95744060  0.59997784     0.13000
H1195       H  0.44714716  0.01438039  0.54364784     0.11800
H1196       H  0.41437838  0.02860120  0.56031814     0.13000
H1197       H  0.38654311  0.02741212  0.58833142     0.12000
H1198       H  0.43084725  0.95801427  0.62527247     0.09100
H1199       H  0.40271666  0.95772583  0.65184224     0.12300
H1200       H  0.37065502  0.01097078  0.62021971     0.14200
C1201       C  0.33463011  0.93995020  0.68422693    -0.01300
C1202       C  0.31256054  0.93476642  0.68442354    -0.09300
C1203       C  0.30564417  0.91384296  0.68973483    -0.18200
C1204       C  0.32069085  0.89737726  0.69528299     0.04200
C1205       C  0.34301156  0.90300741  0.69591297     0.18400
C1206       C  0.34973937  0.92400245  0.69020410    -0.19600
C1207       C  0.35851648  0.88762360  0.70213220    -0.20900
C1208       C  0.35236400  0.86667586  0.70769874    -0.19400
C1209       C  0.33059097  0.86039629  0.70673045     0.19800
C1210       C  0.31445598  0.87558702  0.70025756     0.01900
C1211       C  0.29284944  0.86817935  0.69870528    -0.14100
C1212       C  0.28749515  0.84673552  0.70350519    -0.11800
C1213       C  0.30332597  0.83188021  0.71029279     0.01500
C1214       C  0.32488756  0.83891723  0.71196522    -0.24000
H1215       H  0.30061635  0.94681699  0.67987911     0.09500
H1216       H  0.28840944  0.91108497  0.68939314     0.13000
H1217       H  0.36685163  0.92799787  0.69041042     0.11800
H1218       H  0.37555023  0.89184530  0.70276347     0.13000
H1219       H  0.36478055  0.85521480  0.71253227     0.12000
H1220       H  0.27972917  0.87848031  0.69351601     0.09100
H1221       H  0.27071865  0.84181175  0.70202648     0.12300
H1222       H  0.33734293  0.82755706  0.71696084     0.14200
C1223       C  0.22800827  0.19839215  0.64855156    -0.01300
C1224       C  0.23793521  0.17997266  0.63972470    -0.09300
C1225       C  0.23451045  0.17411545  0.61815005    -0.18200
C1226       C  0.22086653  0.18651282  0.60450796     0.04200
C1227       C  0.21086666  0.20525244  0.61345337     0.18400
C1228       C  0.21450650  0.21099792  0.63521941    -0.19600
C1229       C  0.19718176  0.21808623  0.60066362    -0.20900
C1230       C  0.19294239  0.21255846  0.57922666    -0.19400
C1231       C  0.20225046  0.19403775  0.57002158     0.19800
C1232       C  0.21651322  0.18081817  0.58246011     0.01900
C1233       C  0.22535093  0.16218324  0.57241670    -0.14100
C1234       C  0.21945555  0.15642407  0.55136586    -0.11800
C1235       C  0.20500797  0.16920127  0.53948767     0.01500
C1236       C  0.19680026  0.18823014  0.54865859    -0.24000
H1237       H  0.24853674  0.16997535  0.64952606     0.09500
H1238       H  0.24277711  0.15974541  0.61269503     0.13000
H1239       H  0.20673129  0.22532654  0.64177931     0.11800
H1240       H  0.18953773  0.23241922  0.60734961     0.13000
H1241       H  0.18206404  0.22269658  0.56986168     0.12000
H1242       H  0.23638604  0.15137731  0.58055650     0.09100
H1243       H  0.22571979  0.14152597  0.54450113     0.12300
H1244       H  0.18530862  0.19791130  0.53952142     0.14200
C1245       C  0.05579743  0.29044304  0.68499818    -0.01300
C1246       C  0.06968689  0.27983205  0.67057182    -0.09300
C1247       C  0.09024524  0.27312757  0.67714935    -0.18200
C1248       C  0.09774589  0.27730471  0.69841336     0.04200
C1249       C  0.08333207  0.28777081  0.71309653     0.18400
C1250       C  0.06245662  0.29396644  0.70635939    -0.19600
C1251       C  0.09006032  0.29255886  0.73420854    -0.20900
C1252       C  0.11099444  0.28761608  0.74097079    -0.19400
C1253       C  0.12568736  0.27762588  0.72683560     0.19800
C1254       C  0.11917470  0.27202147  0.70544939     0.01900
C1255       C  0.13453211  0.26170470  0.69192169    -0.14100
C1256       C  0.15554185  0.25762070  0.69912305    -0.11800
C1257       C  0.16211587  0.26364284  0.72000935     0.01500
C1258       C  0.14698106  0.27346320  0.73387688    -0.24000
H1259       H  0.06467935  0.27702093  0.65397787     0.09500
H1260       H  0.10000888  0.26521397  0.66502689     0.13000
H1261       H  0.05170181  0.30239417  0.71743853     0.11800
H1262       H  0.07916211  0.30051992  0.74547226     0.13000
H1263       H  0.11579427  0.29183629  0.75732447     0.12000
H1264       H  0.13091861  0.25667236  0.67561543     0.09100
H1265       H  0.16680403  0.24993083  0.68804343     0.12300
H1266       H  0.15179775  0.27803749  0.75013681     0.14200
C1267       C  0.33307161  0.02162348  0.68809414    -0.01300
C1268       C  0.34755581  0.03568007  0.69835115    -0.09300
C1269       C  0.34095470  0.05623678  0.70507089    -0.18200
C1270       C  0.31957541  0.06365490  0.70128665     0.04200
C1271       C  0.30482374  0.04916918  0.69112188     0.18400
C1272       C  0.31156290  0.02822675  0.68500555    -0.19600
C1273       C  0.28368940  0.05596817  0.68638180    -0.20900
C1274       C  0.27706123  0.07704913  0.69088034    -0.19400
C1275       C  0.29125339  0.09177850  0.70063033     0.19800
C1276       C  0.31254265  0.08513806  0.70648738     0.01900
C1277       C  0.32594600  0.10041227  0.71700952    -0.14100
C1278       C  0.31882271  0.12155070  0.72077200    -0.11800
C1279       C  0.29813058  0.12833562  0.71422401     0.01500
C1280       C  0.28433007  0.11319784  0.70437678    -0.24000
H1281       H  0.36427181  0.03084031  0.70078948     0.09500
H1282       H  0.35319446  0.06617027  0.71250526     0.13000
H1283       H  0.30039786  0.01745683  0.67680284     0.11800
H1284       H  0.27234866  0.04505413  0.67864802     0.13000
H1285       H  0.26073998  0.08191544  0.68654827     0.12000
H1286       H  0.34204357  0.09655262  0.72256863     0.09100
H1287       H  0.32975782  0.13270843  0.72871660     0.12300
H1288       H  0.26815412  0.11808000  0.69952732     0.14200
C1289       C  0.37903185  0.34335345  0.99974968    -0.01300
C1290       C  0.39235529  0.34482170  0.01816998    -0.09300
C1291       C  0.40865748  0.36037256  0.01960336    -0.18200
C1292       C  0.41279610  0.37473392  0.00229166     0.04200
C1293       C  0.40036992  0.37233949  0.98307769     0.18400
C1294       C  0.38334628  0.35726378  0.98219521    -0.19600
C1295       C  0.40508097  0.38494967  0.96480216    -0.20900
C1296       C  0.42196680  0.39983639  0.96519814    -0.19400
C1297       C  0.43385943  0.40322791  0.98419784     0.19800
C1298       C  0.42905315  0.39113401  0.00321933     0.01900
C1299       C  0.44033516  0.39637178  0.02246749    -0.14100
C1300       C  0.45591545  0.41273084  0.02267403    -0.11800
C1301       C  0.46114736  0.42397389  0.00369220     0.01500
C1302       C  0.45027676  0.41895137  0.98442799    -0.24000
H1303       H  0.39046886  0.33374053  0.03162188     0.09500
H1304       H  0.41819500  0.36033388  0.03423716     0.13000
H1305       H  0.37337889  0.35665298  0.96778205     0.11800
H1306       H  0.39585106  0.38305686  0.94998632     0.13000
H1307       H  0.42541767  0.40912131  0.95068764     0.12000
H1308       H  0.43700490  0.38856963  0.03774469     0.09100
H1309       H  0.46404922  0.41660621  0.03773426     0.12300
H1310       H  0.45427385  0.42774254  0.96973579     0.14200
C1311       C  0.30418363  0.26248821  0.84973368    -0.01300
C1312       C  0.31282043  0.24724349  0.86419174    -0.09300
C1313       C  0.31723012  0.25275543  0.88566353    -0.18200
C1314       C  0.31339394  0.27394214  0.89341897     0.04200
C1315       C  0.30512554  0.28953532  0.87857141     0.18400
C1316       C  0.30028475  0.28362677  0.85710243    -0.19600
C1317       C  0.30209282  0.31101653  0.88514127    -0.20900
C1318       C  0.30766676  0.31749579  0.90598857    -0.19400
C1319       C  0.31576130  0.30251131  0.92099054     0.19800
C1320       C  0.31805603  0.28036240  0.91517489     0.01900
C1321       C  0.32498016  0.26565746  0.93139908    -0.14100
C1322       C  0.33049009  0.27287107  0.95214446    -0.11800
C1323       C  0.32949226  0.29488176  0.95727561     0.01500
C1324       C  0.32180437  0.30958015  0.94175444    -0.24000
H1325       H  0.31609044  0.23082841  0.85893919     0.09500
H1326       H  0.32406506  0.24017410  0.89566343     0.13000
H1327       H  0.29385721  0.29564654  0.84600128     0.11800
H1328       H  0.29581546  0.32300085  0.87392957     0.13000
H1329       H  0.30562509  0.33435517  0.91041511     0.12000
H1330       H  0.32624559  0.24848872  0.92858355     0.09100
H1331       H  0.33616024  0.26128361  0.96406050     0.12300
H1332       H  0.32063102  0.32660855  0.94588909     0.14200
C1333       C  0.02033946  0.62001003  0.36426169    -0.01300
C1334       C  0.03680232  0.62044774  0.37990065    -0.09300
C1335       C  0.03733628  0.60531788  0.39668426    -0.18200
C1336       C  0.02115564  0.58925013  0.39860365     0.04200
C1337       C  0.00436099  0.58895913  0.38284953     0.18400
C1338       C  0.00425230  0.60403560  0.36582438    -0.19600
C1339       C  0.98770688  0.57365997  0.38417982    -0.20900
C1340       C  0.98739770  0.55850123  0.40081691    -0.19400
C1341       C  0.00384657  0.55814737  0.41639812     0.19800
C1342       C  0.02100002  0.57350219  0.41555888     0.01900
C1343       C  0.03731252  0.57228636  0.43164413    -0.14100
C1344       C  0.03667859  0.55639197  0.44768831    -0.11800
C1345       C  0.01983921  0.54133800  0.44824688     0.01500
C1346       C  0.00336783  0.54235139  0.43273162    -0.24000
H1347       H  0.04920334  0.63281773  0.37945624     0.09500
H1348       H  0.05050003  0.60684840  0.40802621     0.13000
H1349       H  0.99161666  0.60317759  0.35366518     0.11800
H1350       H  0.97479187  0.57344118  0.37228174     0.13000
H1351       H  0.97428063  0.54686426  0.40140745     0.12000
H1352       H  0.05089397  0.58319365  0.43217903     0.09100
H1353       H  0.04951555  0.55567462  0.45964406     0.12300
H1354       H  0.99033179  0.53060299  0.43328924     0.14200
C1355       C  0.74003428  0.69915464  0.14597727    -0.01300
C1356       C  0.75565565  0.69208825  0.13102011    -0.09300
C1357       C  0.75001921  0.68737390  0.10957215    -0.18200
C1358       C  0.72832494  0.68918616  0.10237216     0.04200
C1359       C  0.71253886  0.69645807  0.11756538     0.18400
C1360       C  0.71855145  0.70171192  0.13893111    -0.19600
C1361       C  0.69070280  0.69782260  0.11155589    -0.20900
C1362       C  0.68403501  0.69129871  0.09105573    -0.19400
C1363       C  0.69910146  0.68377868  0.07582787     0.19800
C1364       C  0.72156547  0.68329883  0.08095253     0.01900
C1365       C  0.73615430  0.67660146  0.06449706    -0.14100
C1366       C  0.72860848  0.66954171  0.04429980    -0.11800
C1367       C  0.70637176  0.66876664  0.03991420     0.01500
C1368       C  0.69175414  0.67634109  0.05560817    -0.24000
H1369       H  0.77239088  0.69008190  0.13593737     0.09500
H1370       H  0.76290935  0.68177198  0.09918003     0.13000
H1371       H  0.70627062  0.70707248  0.15032672     0.11800
H1372       H  0.67858622  0.70340676  0.12300780     0.13000
H1373       H  0.66691973  0.69196376  0.08714676     0.12000
H1374       H  0.75346795  0.67650657  0.06679696     0.09100
H1375       H  0.74017480  0.66395702  0.03230783     0.12300
H1376       H  0.67452566  0.67619749  0.05211058     0.14200
C1377       C  0.86989304  0.69928634  0.28763622    -0.01300
C1378       C  0.87540042  0.67731353  0.28640150    -0.09300
C1379       C  0.89643171  0.67028558  0.29098724    -0.18200
C1380       C  0.91288009  0.68513543  0.29678006     0.04200
C1381       C  0.90733979  0.70747644  0.29755405     0.18400
C1382       C  0.88599880  0.71428641  0.29321572    -0.19600
C1383       C  0.92311871  0.72290078  0.30269951    -0.20900
C1384       C  0.94426934  0.71661818  0.30741581    -0.19400
C1385       C  0.95015229  0.69472531  0.30733380     0.19800
C1386       C  0.93454315  0.67864564  0.30196876     0.01900
C1387       C  0.94121854  0.65674423  0.30243240    -0.14100
C1388       C  0.96222551  0.65106899  0.30853915    -0.11800
C1389       C  0.97742535  0.66690453  0.31415645     0.01500
C1390       C  0.97143775  0.68876009  0.31309636    -0.24000
H1391       H  0.86328985  0.66538675  0.28211420     0.09500
H1392       H  0.89926226  0.65312000  0.28977972     0.13000
H1393       H  0.88197755  0.73136700  0.29396445     0.11800
H1394       H  0.91905007  0.73997151  0.30316468     0.13000
H1395       H  0.95604433  0.72896828  0.31145833     0.12000
H1396       H  0.93050904  0.64354940  0.29859625     0.09100
H1397       H  0.96659738  0.63407750  0.30911727     0.12300
H1398       H  0.98310601  0.70106259  0.31760759     0.14200
C1399       C  0.65952034  0.98169991  0.36170851    -0.01300
C1400       C  0.65943308  0.99737989  0.37811239    -0.09300
C1401       C  0.64387734  0.99702737  0.39451114    -0.18200
C1402       C  0.62779697  0.98076255  0.39521643     0.04200
C1403       C  0.62838735  0.96438958  0.37905441     0.18400
C1404       C  0.64400319  0.96509412  0.36246134    -0.19600
C1405       C  0.61326106  0.94751850  0.37942795    -0.20900
C1406       C  0.59727597  0.94674526  0.39533364    -0.19400
C1407       C  0.59583486  0.96298526  0.41108035     0.19800
C1408       C  0.61110559  0.98023359  0.41127461     0.01900
C1409       C  0.60875593  0.99642467  0.42730770    -0.14100
C1410       C  0.59192723  0.99558679  0.44235016    -0.11800
C1411       C  0.57696730  0.97863373  0.44206181     0.01500
C1412       C  0.57906002  0.96224388  0.42652643    -0.24000
H1413       H  0.67160268  0.00998323  0.37843847     0.09500
H1414       H  0.64501152  0.00967771  0.40645207     0.13000
H1415       H  0.64374370  0.95288495  0.34985789     0.11800
H1416       H  0.61374216  0.93486486  0.36727276     0.13000
H1417       H  0.58576306  0.93351538  0.39512666     0.12000
H1418       H  0.61944997  0.01012054  0.42853536     0.09100
H1419       H  0.59050188  0.00833006  0.45433455     0.12300
H1420       H  0.56751101  0.94903101  0.42642755     0.14200
C1421       C  0.70970004  0.94381001  0.31079126    -0.01300
C1422       C  0.70883211  0.93840935  0.28879705    -0.09300
C1423       C  0.71420020  0.91748823  0.28187525    -0.18200
C1424       C  0.72065763  0.90132948  0.29689082     0.04200
C1425       C  0.72286124  0.90744343  0.31897809     0.18400
C1426       C  0.71734238  0.92843376  0.32566742    -0.19600
C1427       C  0.73005559  0.89244241  0.33439820    -0.20900
C1428       C  0.73489300  0.87129568  0.32842844    -0.19400
C1429       C  0.73219861  0.86448908  0.30697895     0.19800
C1430       C  0.72482940  0.87933306  0.29091628     0.01900
C1431       C  0.72143866  0.87134694  0.26973570    -0.14100
C1432       C  0.72549416  0.84968138  0.26468946    -0.11800
C1433       C  0.73326981  0.83522019  0.28043407     0.01500
C1434       C  0.73659061  0.84280385  0.30157697    -0.24000
H1435       H  0.70308036  0.95012522  0.27704833     0.09500
H1436       H  0.71289848  0.91438930  0.26473854     0.13000
H1437       H  0.71839874  0.93270797  0.34268770     0.11800
H1438       H  0.73187285  0.89707880  0.35124106     0.13000
H1439       H  0.74043068  0.86007928  0.34076768     0.12000
H1440       H  0.71535025  0.88135680  0.25677943     0.09100
H1441       H  0.72264217  0.84428356  0.24823710     0.12300
H1442       H  0.74232024  0.83173541  0.31397322     0.14200
C1443       C  0.66338079  0.20219607  0.21584463    -0.01300
C1444       C  0.65676614  0.18096974  0.22037209    -0.09300
C1445       C  0.63561890  0.17425776  0.21588873    -0.18200
C1446       C  0.62029164  0.18869994  0.20677447     0.04200
C1447       C  0.62681798  0.21047661  0.20323151     0.18400
C1448       C  0.64816445  0.21692080  0.20758364    -0.19600
C1449       C  0.61208474  0.22570065  0.19512554    -0.20900
C1450       C  0.59101405  0.21970352  0.19005923    -0.19400
C1451       C  0.58430328  0.19823333  0.19251836     0.19800
C1452       C  0.59884095  0.18234661  0.20082856     0.01900
C1453       C  0.59146949  0.16070555  0.20211434    -0.14100
C1454       C  0.57073816  0.15510160  0.19504527    -0.11800
C1455       C  0.55657836  0.17086484  0.18693486     0.01500
C1456       C  0.56329453  0.19244194  0.18606531    -0.24000
H1457       H  0.66809379  0.16933425  0.22706383     0.09500
H1458       H  0.63177544  0.15768793  0.21974787     0.13000
H1459       H  0.65295108  0.23351008  0.20442626     0.11800
H1460       H  0.61692757  0.24236850  0.19257695     0.13000
H1461       H  0.58002827  0.23185879  0.18370127     0.12000
H1462       H  0.60152685  0.14765003  0.20789987     0.09100
H1463       H  0.56576099  0.13830165  0.19574505     0.12300
H1464       H  0.55242812  0.20458689  0.17944931     0.14200
C1465       C  0.73197127  0.26937544  0.14659073    -0.01300
C1466       C  0.74767408  0.27343523  0.13067185    -0.09300
C1467       C  0.74175420  0.27710514  0.10912732    -0.18200
C1468       C  0.71973449  0.27714948  0.10277286     0.04200
C1469       C  0.70381513  0.27361723  0.11910916     0.18400
C1470       C  0.71004094  0.26946001  0.14065107    -0.19600
C1471       C  0.68175563  0.27444973  0.11389937    -0.20900
C1472       C  0.67511531  0.27878259  0.09280769    -0.19400
C1473       C  0.69036371  0.28200206  0.07629992     0.19800
C1474       C  0.71290608  0.28092249  0.08092405     0.01900
C1475       C  0.72756635  0.28371897  0.06346259    -0.14100
C1476       C  0.72014219  0.28837671  0.04255561    -0.11800
C1477       C  0.69793774  0.29036547  0.03830710     0.01500
C1478       C  0.68315173  0.28664255  0.05521506    -0.24000
H1479       H  0.76472733  0.27354407  0.13484522     0.09500
H1480       H  0.75479103  0.28011946  0.09789663     0.13000
H1481       H  0.69774463  0.26667742  0.15291365     0.11800
H1482       H  0.66953079  0.27194471  0.12627974     0.13000
H1483       H  0.65790335  0.27960083  0.08937735     0.12000
H1484       H  0.74487967  0.28261604  0.06546085     0.09100
H1485       H  0.73189938  0.29126655  0.02983049     0.12300
H1486       H  0.66590202  0.28774495  0.05201235     0.14200
C1487       C  0.73198014  0.13383012  0.28235971    -0.01300
C1488       C  0.73412805  0.12773246  0.30411641    -0.09300
C1489       C  0.72996334  0.10649285  0.31069289    -0.18200
C1490       C  0.72366831  0.09044686  0.29558090     0.04200
C1491       C  0.72211227  0.09656579  0.27342111     0.18400
C1492       C  0.72605932  0.11808273  0.26708163    -0.19600
C1493       C  0.71650383  0.08120421  0.25771994    -0.20900
C1494       C  0.71202359  0.05991018  0.26357653    -0.19400
C1495       C  0.71278213  0.05346515  0.28532349     0.19800
C1496       C  0.71867817  0.06864632  0.30164843     0.01900
C1497       C  0.71887303  0.06144245  0.32339420    -0.14100
C1498       C  0.71289164  0.04035073  0.32872881    -0.11800
C1499       C  0.70672757  0.02555265  0.31269707     0.01500
C1500       C  0.70715228  0.03205909  0.29093244    -0.24000
H1501       H  0.73872723  0.13954126  0.31623634     0.09500
H1502       H  0.73184051  0.10319161  0.32773239     0.13000
H1503       H  0.72462081  0.12254990  0.25013940     0.11800
H1504       H  0.71545885  0.08572094  0.24077062     0.13000
H1505       H  0.70759174  0.04847826  0.25102862     0.12000
H1506       H  0.72312723  0.07180533  0.33675136     0.09100
H1507       H  0.71285385  0.03559075  0.34564113     0.12300
H1508       H  0.70225836  0.02071287  0.27846688     0.14200
C1509       C  0.20468795  0.52338601  0.18167641    -0.01300
C1510       C  0.20532638  0.52742735  0.20397984    -0.09300
C1511       C  0.21125365  0.54775327  0.21187821    -0.18200
C1512       C  0.21690505  0.56479019  0.19760654     0.04200
C1513       C  0.21718529  0.56028513  0.17499780     0.18400
C1514       C  0.21090428  0.53982179  0.16727036    -0.19600
C1515       C  0.22350306  0.57630075  0.16022970    -0.20900
C1516       C  0.22934504  0.59682405  0.16740121    -0.19400
C1517       C  0.22857984  0.60200330  0.18948704     0.19800
C1518       C  0.22217601  0.58612094  0.20491198     0.01900
C1519       C  0.22087141  0.59244345  0.22691399    -0.14100
C1520       C  0.22571115  0.61357827  0.23329268    -0.11800
C1521       C  0.23231791  0.62910233  0.21811430     0.01500
C1522       C  0.23386761  0.62310950  0.19621236    -0.24000
H1523       H  0.20056969  0.51496283  0.21538745     0.09500
H1524       H  0.21119839  0.54960845  0.22923837     0.13000
H1525       H  0.21073750  0.53666890  0.14997751     0.11800
H1526       H  0.22390776  0.57293817  0.14299090     0.13000
H1527       H  0.23416583  0.60884626  0.15553977     0.12000
H1528       H  0.21579041  0.58155246  0.23957326     0.09100
H1529       H  0.22436233  0.61775210  0.25029378     0.12300
H1530       H  0.23872499  0.63504407  0.18426450     0.14200
C1531       C  0.30159935  0.69347518  0.14981793    -0.01300
C1532       C  0.28563369  0.68859490  0.13446010    -0.09300
C1533       C  0.29114358  0.68427832  0.11296905    -0.18200
C1534       C  0.31300886  0.68445180  0.10609937     0.04200
C1535       C  0.32920188  0.68914709  0.12182033     0.18400
C1536       C  0.32337631  0.69380785  0.14335427    -0.19600
C1537       C  0.35112868  0.68903434  0.11599836    -0.20900
C1538       C  0.35737832  0.68429179  0.09487978    -0.19400
C1539       C  0.34184724  0.67973694  0.07901515     0.19800
C1540       C  0.31940962  0.67992640  0.08429619     0.01900
C1541       C  0.30441404  0.67546861  0.06752189    -0.14100
C1542       C  0.31146778  0.67048749  0.04659445    -0.11800
C1543       C  0.33359545  0.66974500  0.04169014     0.01500
C1544       C  0.34867953  0.67468452  0.05791541    -0.24000
H1545       H  0.26867277  0.68831029  0.13902584     0.09500
H1546       H  0.27789279  0.68071962  0.10220304     0.13000
H1547       H  0.33585999  0.69737373  0.15518336     0.11800
H1548       H  0.36355456  0.69250522  0.12790227     0.13000
H1549       H  0.37450464  0.68415568  0.09093165     0.12000
H1550       H  0.28713888  0.67548085  0.07005414     0.09100
H1551       H  0.29956222  0.66647843  0.03434679     0.12300
H1552       H  0.36585186  0.67430310  0.05413454     0.14200
C1553       C  0.16715942  0.69912003  0.28631921    -0.01300
C1554       C  0.15853454  0.68038588  0.27684934    -0.09300
C1555       C  0.13713339  0.67412152  0.28085897    -0.18200
C1556       C  0.12350866  0.68641902  0.29463686     0.04200
C1557       C  0.13218814  0.70561077  0.30389481     0.18400
C1558       C  0.15374293  0.71171958  0.29971530    -0.19600
C1559       C  0.11936543  0.71855857  0.31742828    -0.20900
C1560       C  0.09812651  0.71276331  0.32221138    -0.19400
C1561       C  0.08920015  0.69376599  0.31374124     0.19800
C1562       C  0.10172091  0.68029180  0.29978056     0.01900
C1563       C  0.09203078  0.66101839  0.29207023    -0.14100
C1564       C  0.07112029  0.65513679  0.29848049    -0.11800
C1565       C  0.05906014  0.66839141  0.31234970     0.01500
C1566       C  0.06800489  0.68782644  0.31968636    -0.24000
H1567       H  0.16838664  0.67041513  0.26626465     0.09500
H1568       H  0.13176428  0.65955821  0.27293124     0.13000
H1569       H  0.16010924  0.72631234  0.30707931     0.11800
H1570       H  0.12585745  0.73324118  0.32448393     0.13000
H1571       H  0.08870716  0.72307207  0.33288304     0.12000
H1572       H  0.10037105  0.64985586  0.28154623     0.09100
H1573       H  0.06446340  0.63988772  0.29296166     0.12300
H1574       H  0.05875407  0.69786337  0.33077846     0.14200
C1575       C  0.46325284  0.97986941  0.44224647    -0.01300
C1576       C  0.45207577  0.96062742  0.43807221    -0.09300
C1577       C  0.43535525  0.96007672  0.42279889    -0.18200
C1578       C  0.42971394  0.97876408  0.41075576     0.04200
C1579       C  0.44197174  0.99792050  0.41428363     0.18400
C1580       C  0.45813352  0.99845669  0.43029643    -0.19600
C1581       C  0.43821075  0.01634157  0.40161943    -0.20900
C1582       C  0.42269881  0.01607419  0.38529334    -0.19400
C1583       C  0.40982051  0.99773985  0.38193406     0.19800
C1584       C  0.41267708  0.97905872  0.39504580     0.01900
C1585       C  0.39806523  0.96171899  0.39215794    -0.14100
C1586       C  0.38157368  0.96277741  0.37664101    -0.11800
C1587       C  0.37938684  0.98081444  0.36285795     0.01500
C1588       C  0.39392423  0.99814272  0.36564514    -0.24000
H1589       H  0.45618738  0.94600974  0.44688382     0.09500
H1590       H  0.42748920  0.94469951  0.42037380     0.13000
H1591       H  0.46707363  0.01326120  0.43327083     0.11800
H1592       H  0.44760999  0.03093757  0.40409085     0.13000
H1593       H  0.42045863  0.03048439  0.37550533     0.12000
H1594       H  0.39852867  0.94741312  0.40217547     0.09100
H1595       H  0.37032956  0.94939998  0.37580880     0.12300
H1596       H  0.39311369  0.01212653  0.35510572     0.14200
C1597       C  0.30443967  0.83405308  0.28043464    -0.01300
C1598       C  0.31387497  0.84816143  0.26526932    -0.09300
C1599       C  0.31795718  0.86986128  0.27039518    -0.18200
C1600       C  0.31293817  0.87830461  0.29111556     0.04200
C1601       C  0.30333483  0.86399212  0.30645239     0.18400
C1602       C  0.29899243  0.84227032  0.30095572    -0.19600
C1603       C  0.29846060  0.87132336  0.32736669    -0.20900
C1604       C  0.30347740  0.89235321  0.33363374    -0.19400
C1605       C  0.31316701  0.90677829  0.31905425     0.19800
C1606       C  0.31756474  0.90020398  0.29739467     0.01900
C1607       C  0.32667931  0.91578768  0.28317302    -0.14100
C1608       C  0.33203910  0.93661527  0.29046202    -0.11800
C1609       C  0.32865937  0.94253898  0.31210027     0.01500
C1610       C  0.31891230  0.92763068  0.32619759    -0.24000
H1611       H  0.31818978  0.84241200  0.24925007     0.09500
H1612       H  0.32538950  0.87953847  0.25789969     0.13000
H1613       H  0.29173103  0.83162221  0.31289757     0.11800
H1614       H  0.29108524  0.86056790  0.33913195     0.13000
H1615       H  0.29989701  0.89732520  0.35010163     0.12000
H1616       H  0.33007214  0.91228503  0.26639694     0.09100
H1617       H  0.33961948  0.94788551  0.27934387     0.12300
H1618       H  0.31619185  0.93220194  0.34295748     0.14200
C1619       C  0.22881155  0.20369474  0.35186098    -0.01300
C1620       C  0.22089232  0.21909468  0.36659943    -0.09300
C1621       C  0.21512391  0.21315738  0.38771128    -0.18200
C1622       C  0.21686300  0.19141952  0.39474722     0.04200
C1623       C  0.22465482  0.17585607  0.37961063     0.18400
C1624       C  0.23075840  0.18212630  0.35859292    -0.19600
C1625       C  0.22612681  0.15401862  0.38541910    -0.20900
C1626       C  0.21999530  0.14719800  0.40596821    -0.19400
C1627       C  0.21255990  0.16208724  0.42135623     0.19800
C1628       C  0.21103962  0.18446827  0.41612115     0.01900
C1629       C  0.20390643  0.19881324  0.43257952    -0.14100
C1630       C  0.19847275  0.19116784  0.45325394    -0.11800
C1631       C  0.19966449  0.16905097  0.45807744     0.01500
C1632       C  0.20670670  0.15463997  0.44203320    -0.24000
H1633       H  0.21915564  0.23588433  0.36181061     0.09500
H1634       H  0.20911914  0.22589209  0.39804017     0.13000
H1635       H  0.23660374  0.17002268  0.34726897     0.11800
H1636       H  0.23194158  0.14207605  0.37392271     0.13000
H1637       H  0.22121205  0.13013366  0.40990181     0.12000
H1638       H  0.20248919  0.21601557  0.43002796     0.09100
H1639       H  0.19294593  0.20254283  0.46543212     0.12300
H1640       H  0.20785926  0.13751614  0.44578752     0.14200
C1641       C  0.36867371  0.20151474  0.21842090    -0.01300
C1642       C  0.37589273  0.20981096  0.19852854    -0.09300
C1643       C  0.39719165  0.20663766  0.19164381    -0.18200
C1644       C  0.41212493  0.19491890  0.20447546     0.04200
C1645       C  0.40495887  0.18713650  0.22497063     0.18400
C1646       C  0.38343659  0.19042868  0.23169403    -0.19600
C1647       C  0.41922599  0.17585035  0.23852772    -0.20900
C1648       C  0.44038171  0.17167802  0.23197999    -0.19400
C1649       C  0.44769703  0.17844105  0.21160228     0.19800
C1650       C  0.43373810  0.19027252  0.19755246     0.01900
C1651       C  0.44179877  0.19621465  0.17688542    -0.14100
C1652       C  0.46243686  0.18980768  0.17017082    -0.11800
C1653       C  0.47582283  0.17786495  0.18397919     0.01500
C1654       C  0.46865573  0.17269419  0.20484066    -0.24000
H1655       H  0.36497002  0.21870470  0.18803941     0.09500
H1656       H  0.40139691  0.21351678  0.17615676     0.13000
H1657       H  0.37814976  0.18415077  0.24724070     0.11800
H1658       H  0.41391600  0.17000174  0.25422644     0.13000
H1659       H  0.45095038  0.16265659  0.24273830     0.12000
H1660       H  0.43234123  0.20515287  0.16524753     0.09100
H1661       H  0.46784137  0.19379750  0.15393409     0.12300
H1662       H  0.47903047  0.16316886  0.21537637     0.14200
C1663       C  0.20221519  0.44209764  0.18441424    -0.01300
C1664       C  0.22433280  0.43713030  0.18516551    -0.09300
C1665       C  0.23135823  0.41664515  0.19175589    -0.18200
C1666       C  0.21633854  0.40043052  0.19788019     0.04200
C1667       C  0.19397228  0.40600584  0.19815013     0.18400
C1668       C  0.18716151  0.42661581  0.19137769    -0.19600
C1669       C  0.17847114  0.39084669  0.20474107    -0.20900
C1670       C  0.18462960  0.36999045  0.21057882    -0.19400
C1671       C  0.20640813  0.36368606  0.20967032     0.19800
C1672       C  0.22260947  0.37882476  0.20336858     0.01900
C1673       C  0.24428952  0.37148198  0.20223648    -0.14100
C1674       C  0.24955776  0.34998835  0.20673950    -0.11800
C1675       C  0.23355131  0.33509948  0.21282837     0.01500
C1676       C  0.21202377  0.34216422  0.21459323    -0.24000
H1677       H  0.23622263  0.44892410  0.17994297     0.09500
H1678       H  0.24861596  0.41396575  0.19165037     0.13000
H1679       H  0.17002296  0.43057160  0.19122928     0.11800
H1680       H  0.16141626  0.39508333  0.20516165     0.13000
H1681       H  0.17220554  0.35857569  0.21541479     0.12000
H1682       H  0.25752834  0.38181457  0.19752788     0.09100
H1683       H  0.26636211  0.34501587  0.20546499     0.12300
H1684       H  0.19951085  0.33075529  0.21924144     0.14200
C1685       C  0.32549626  0.29666163  0.03863583    -0.01300
C1686       C  0.31501244  0.31151334  0.05217439    -0.09300
C1687       C  0.30883933  0.30573545  0.07317585    -0.18200
C1688       C  0.31342955  0.28487269  0.08152270     0.04200
C1689       C  0.32359545  0.26967142  0.06744004     0.18400
C1690       C  0.32926993  0.27559478  0.04613017    -0.19600
C1691       C  0.32867222  0.24888113  0.07493560    -0.20900
C1692       C  0.32428139  0.24294425  0.09625481    -0.19400
C1693       C  0.31459939  0.25760070  0.11063385     0.19800
C1694       C  0.30880237  0.27870981  0.10343138     0.01900
C1695       C  0.29893078  0.29280324  0.11859432    -0.14100
C1696       C  0.29516743  0.28628113  0.13996225    -0.11800
C1697       C  0.30112392  0.26555025  0.14711554     0.01500
C1698       C  0.31081458  0.25128150  0.13225259    -0.24000
H1699       H  0.31202677  0.32788632  0.04659062     0.09500
H1700       H  0.30102489  0.31815936  0.08262515     0.13000
H1701       H  0.33762648  0.26415834  0.03571028     0.11800
H1702       H  0.33640400  0.23721265  0.06431646     0.13000
H1703       H  0.32866375  0.22679808  0.10158956     0.12000
H1704       H  0.29394778  0.30901732  0.11450044     0.09100
H1705       H  0.28765178  0.29768416  0.15099869     0.12300
H1706       H  0.31540820  0.23515344  0.13748303     0.14200
C1707       C  0.33175563  0.02453738  0.31343097    -0.01300
C1708       C  0.34762072  0.03936884  0.30682669    -0.09300
C1709       C  0.34210129  0.06053348  0.30091141    -0.18200
C1710       C  0.32035817  0.06781528  0.30175240     0.04200
C1711       C  0.30428144  0.05270535  0.30848539     0.18400
C1712       C  0.31003570  0.03123374  0.31390171    -0.19600
C1713       C  0.28261832  0.05926803  0.31026784    -0.20900
C1714       C  0.27657231  0.08054117  0.30580824    -0.19400
C1715       C  0.29194789  0.09579408  0.29907584     0.19800
C1716       C  0.31402576  0.08959783  0.29659574     0.01900
C1717       C  0.32873326  0.10551057  0.28908450    -0.14100
C1718       C  0.32185138  0.12665769  0.28455197    -0.11800
C1719       C  0.30016368  0.13287034  0.28752829     0.01500
C1720       C  0.28531526  0.11723425  0.29479304    -0.24000
H1721       H  0.36452317  0.03457074  0.30646110     0.09500
H1722       H  0.35529958  0.07094364  0.29624056     0.13000
H1723       H  0.29772415  0.01995684  0.31934245     0.11800
H1724       H  0.27027184  0.04792264  0.31544901     0.13000
H1725       H  0.25969130  0.08509479  0.30762251     0.12000
H1726       H  0.34565659  0.10209058  0.28639362     0.09100
H1727       H  0.33369406  0.13828757  0.27887824     0.12300
H1728       H  0.26843608  0.12168570  0.29691724     0.14200
C1729       C  0.01822578  0.34919465  0.36267138    -0.01300
C1730       C  0.03716512  0.36151829  0.36541686    -0.09300
C1731       C  0.03858913  0.37729946  0.38156508    -0.18200
C1732       C  0.02081937  0.38183005  0.39530477     0.04200
C1733       C  0.00128889  0.37021096  0.39178406     0.18400
C1734       C  0.00034538  0.35379089  0.37607099    -0.19600
C1735       C  0.98273378  0.37507192  0.40393577    -0.20900
C1736       C  0.98311411  0.39135532  0.41946124    -0.19400
C1737       C  0.00228826  0.40257583  0.42384360     0.19800
C1738       C  0.02158821  0.39764374  0.41220223     0.01900
C1739       C  0.04085651  0.40843974  0.41831340    -0.14100
C1740       C  0.04081803  0.42363412  0.43509532    -0.11800
C1741       C  0.02157146  0.42897084  0.44588926     0.01500
C1742       C  0.00233072  0.41853236  0.44003709    -0.24000
H1743       H  0.05102697  0.35923353  0.35490542     0.09500
H1744       H  0.05364314  0.38607363  0.38254166     0.13000
H1745       H  0.98560155  0.34443518  0.37457858     0.11800
H1746       H  0.96771914  0.36641106  0.40120987     0.13000
H1747       H  0.96839396  0.39492373  0.42839055     0.12000
H1748       H  0.05628080  0.40510865  0.41078624     0.09100
H1749       H  0.05586062  0.43146634  0.43956701     0.12300
H1750       H  0.98743274  0.42260784  0.44846678     0.14200
C1751       C  0.97465753  0.30242067  0.31249673    -0.01300
C1752       C  0.96086074  0.31777716  0.30302529    -0.09300
C1753       C  0.93985336  0.31219278  0.29659012    -0.18200
C1754       C  0.93176464  0.29100080  0.29984351     0.04200
C1755       C  0.94592327  0.27548897  0.30942889     0.18400
C1756       C  0.96718158  0.28121975  0.31532911    -0.19600
C1757       C  0.93864633  0.25444508  0.31354026    -0.20900
C1758       C  0.91753556  0.24844510  0.30853754    -0.19400
C1759       C  0.90319237  0.26324487  0.29904040     0.19800
C1760       C  0.91010033  0.28468967  0.29432269     0.01900
C1761       C  0.89496217  0.29880786  0.28438186    -0.14100
C1762       C  0.87388961  0.29194079  0.27953792    -0.11800
C1763       C  0.86706961  0.27086151  0.28451719     0.01500
C1764       C  0.88192338  0.25663884  0.29427366    -0.24000
H1765       H  0.96633696  0.33427863  0.30075338     0.09500
H1766       H  0.93020468  0.32492829  0.28953349     0.13000
H1767       H  0.97769171  0.26936794  0.32296643     0.11800
H1768       H  0.94930283  0.24257706  0.32091680     0.13000
H1769       H  0.91238451  0.23206375  0.31213391     0.12000
H1770       H  0.89892690  0.31524005  0.28008166     0.09100
H1771       H  0.86282408  0.30330694  0.27200248     0.12300
H1772       H  0.87697326  0.24024524  0.29812051     0.14200
C1773       C  0.16309922  0.26840029  0.28129603    -0.01300
C1774       C  0.14699252  0.27217277  0.26574055    -0.09300
C1775       C  0.12549129  0.27598276  0.27189748    -0.18200
C1776       C  0.11938093  0.27653852  0.29401436     0.04200
C1777       C  0.13580943  0.27275467  0.30975091     0.18400
C1778       C  0.15728596  0.26846351  0.30329452    -0.19600
C1779       C  0.13080143  0.27364327  0.33187209    -0.20900
C1780       C  0.10991444  0.27865946  0.33876355    -0.19400
C1781       C  0.09341491  0.28269452  0.32371976     0.19800
C1782       C  0.09775575  0.28126836  0.30112039     0.01900
C1783       C  0.08032395  0.28504437  0.28668320    -0.14100
C1784       C  0.05985392  0.29117329  0.29433674    -0.11800
C1785       C  0.05595914  0.29367138  0.31657781     0.01500
C1786       C  0.07271565  0.28874644  0.33118098    -0.24000
H1787       H  0.15100769  0.27205074  0.24864074     0.09500
H1788       H  0.11411020  0.27876908  0.25895583     0.13000
H1789       H  0.16963830  0.26570006  0.31548904     0.11800
H1790       H  0.14322766  0.27079423  0.34395802     0.13000
H1791       H  0.10670132  0.27963085  0.35601429     0.12000
H1792       H  0.08208186  0.28381043  0.26935167     0.09100
H1793       H  0.04726079  0.29489902  0.28268772     0.12300
H1794       H  0.06978370  0.29016494  0.34845676     0.14200
C1795       C  0.47740743  0.79325293  0.81745836    -0.01300
C1796       C  0.46178828  0.78784007  0.83305343    -0.09300
C1797       C  0.44143453  0.78021745  0.82694433    -0.18200
C1798       C  0.43591417  0.77778904  0.80483977     0.04200
C1799       C  0.45220697  0.78209685  0.78910075     0.18400
C1800       C  0.47272082  0.78961906  0.79550980    -0.19600
C1801       C  0.44765110  0.77971928  0.76700477    -0.20900
C1802       C  0.42688554  0.77435105  0.76011328    -0.19400
C1803       C  0.41019888  0.77111347  0.77515688     0.19800
C1804       C  0.41462876  0.77207900  0.79776447     0.01900
C1805       C  0.39736608  0.76797322  0.81228117    -0.14100
C1806       C  0.37645622  0.76410970  0.80468950    -0.11800
C1807       C  0.37192518  0.76431106  0.78244965     0.01500
C1808       C  0.38897291  0.76740994  0.76773075    -0.24000
H1809       H  0.46518626  0.78985343  0.85015514     0.09500
H1810       H  0.43024824  0.77689447  0.83993474     0.13000
H1811       H  0.48464718  0.79375083  0.78327500     0.11800
H1812       H  0.46007703  0.78266283  0.75492724     0.13000
H1813       H  0.42373550  0.77323484  0.74286882     0.12000
H1814       H  0.39937477  0.76789562  0.82961917     0.09100
H1815       H  0.36362295  0.76146700  0.81639601     0.12300
H1816       H  0.38569344  0.76707723  0.75046687     0.14200
C1817       C  0.55815641  0.80304391  0.81072555    -0.01300
C1818       C  0.57379184  0.81851985  0.80515490    -0.09300
C1819       C  0.59461385  0.81225246  0.79873443    -0.18200
C1820       C  0.60059016  0.79012773  0.79784657     0.04200
C1821       C  0.58442560  0.77449789  0.80278037     0.18400
C1822       C  0.56349245  0.78104083  0.80897606    -0.19600
C1823       C  0.58940041  0.75239483  0.80215749    -0.20900
C1824       C  0.61031469  0.74541626  0.79744117    -0.19400
C1825       C  0.62678167  0.76035384  0.79310159     0.19800
C1826       C  0.62208674  0.78292628  0.79280572     0.01900
C1827       C  0.63922912  0.79726807  0.78786477    -0.14100
C1828       C  0.66014506  0.78955112  0.78386603    -0.11800
C1829       C  0.66485386  0.76734611  0.78481606     0.01500
C1830       C  0.64800379  0.75282297  0.78929738    -0.24000
H1831       H  0.56997425  0.83562241  0.80601029     0.09500
H1832       H  0.60575628  0.82513281  0.79499476     0.13000
H1833       H  0.55160247  0.76892099  0.81343845     0.11800
H1834       H  0.57710769  0.74040057  0.80575623     0.13000
H1835       H  0.61369690  0.72819183  0.79746336     0.12000
H1836       H  0.63706060  0.81455780  0.78706855     0.09100
H1837       H  0.67282731  0.80115380  0.78037524     0.12300
H1838       H  0.65139430  0.73559777  0.78977672     0.14200
C1839       C  0.51560013  0.84800899  0.86372864    -0.01300
C1840       C  0.49700853  0.86079948  0.86690055    -0.09300
C1841       C  0.49601189  0.87605706  0.88355938    -0.18200
C1842       C  0.51388976  0.87952637  0.89740874     0.04200
C1843       C  0.53298084  0.86716250  0.89370064     0.18400
C1844       C  0.53346918  0.85128547  0.87743815    -0.19600
C1845       C  0.55161806  0.87089828  0.90605533    -0.20900
C1846       C  0.55187398  0.88705709  0.92170432    -0.19400
C1847       C  0.53323816  0.89926855  0.92597436     0.19800
C1848       C  0.51373658  0.89520471  0.91440951     0.01900
C1849       C  0.49493476  0.90688523  0.92051756    -0.14100
C1850       C  0.49574694  0.92249297  0.93685675    -0.11800
C1851       C  0.51532249  0.92726479  0.94719395     0.01500
C1852       C  0.53396665  0.91551258  0.94182239    -0.24000
H1853       H  0.48315522  0.85933199  0.85626185     0.09500
H1854       H  0.48126178  0.88536452  0.88475540     0.13000
H1855       H  0.54788727  0.84142070  0.87560369     0.11800
H1856       H  0.56626551  0.86158621  0.90325630     0.13000
H1857       H  0.56670508  0.88990079  0.93065846     0.12000
H1858       H  0.47932119  0.90405347  0.91324020     0.09100
H1859       H  0.48109383  0.93112813  0.94128223     0.12300
H1860       H  0.54901175  0.91893763  0.95022513     0.14200
C1861       C  0.20179894  0.44023295  0.80872602    -0.01300
C1862       C  0.22355839  0.43451407  0.81153866    -0.09300
C1863       C  0.23075005  0.41359754  0.80663860    -0.18200
C1864       C  0.21628825  0.39774990  0.79856863     0.04200
C1865       C  0.19452669  0.40414498  0.79445570     0.18400
C1866       C  0.18746284  0.42510792  0.79978964    -0.19600
C1867       C  0.17984726  0.38948279  0.78537385    -0.20900
C1868       C  0.18620558  0.36841321  0.78058398    -0.19400
C1869       C  0.20723478  0.36130190  0.78529588     0.19800
C1870       C  0.22254159  0.37580529  0.79454235     0.01900
C1871       C  0.24324069  0.36754464  0.79987093    -0.14100
C1872       C  0.24857610  0.34593379  0.79592057    -0.11800
C1873       C  0.23361701  0.33177281  0.78637491     0.01500
C1874       C  0.21294441  0.33964890  0.78107638    -0.24000
H1875       H  0.23488558  0.44605125  0.81831129     0.09500
H1876       H  0.24768113  0.41031172  0.80941717     0.13000
H1877       H  0.17065325  0.42963729  0.79727755     0.11800
H1878       H  0.16329841  0.39433564  0.78198731     0.13000
H1879       H  0.17444846  0.35747220  0.77353645     0.12000
H1880       H  0.25556150  0.37727376  0.80745748     0.09100
H1881       H  0.26462871  0.34033687  0.80033194     0.12300
H1882       H  0.20113631  0.32885125  0.77387806     0.14200
C1883       C  0.20369393  0.52184311  0.81006447    -0.01300
C1884       C  0.22600547  0.52604427  0.81032121    -0.09300
C1885       C  0.23393685  0.54667272  0.80510408    -0.18200
C1886       C  0.21967063  0.56373586  0.79929628     0.04200
C1887       C  0.19717426  0.55891864  0.79800860     0.18400
C1888       C  0.18947917  0.53827269  0.80347658    -0.19600
C1889       C  0.18234087  0.57481506  0.79158228    -0.20900
C1890       C  0.18926248  0.59560920  0.78667691    -0.19400
C1891       C  0.21114554  0.60117211  0.78846471     0.19800
C1892       C  0.22672744  0.58540602  0.79489576     0.01900
C1893       C  0.24850184  0.59223604  0.79711643    -0.14100
C1894       C  0.25441739  0.61378590  0.79322148    -0.11800
C1895       C  0.23897160  0.62915518  0.78663982     0.01500
C1896       C  0.21740356  0.62259633  0.78414781    -0.24000
H1897       H  0.23729767  0.51352319  0.81523779     0.09500
H1898       H  0.25125430  0.54882597  0.80588058     0.13000
H1899       H  0.17222466  0.53498012  0.80280955     0.11800
H1900       H  0.16520075  0.57116418  0.79043271     0.13000
H1901       H  0.17732237  0.60755052  0.78180230     0.12000
H1902       H  0.26123886  0.58138517  0.80217061     0.09100
H1903       H  0.27123023  0.61839495  0.79521572     0.12300
H1904       H  0.20527637  0.63435588  0.77925876     0.14200
C1905       C  0.15111743  0.48137521  0.85667691    -0.01300
C1906       C  0.15176080  0.46651706  0.87384047    -0.09300
C1907       C  0.13630088  0.46715956  0.89037339    -0.18200
C1908       C  0.11956931  0.48285894  0.89035840     0.04200
C1909       C  0.11872656  0.49764268  0.87268914     0.18400
C1910       C  0.13435705  0.49674326  0.85611044    -0.19600
C1911       C  0.10244515  0.51343068  0.87178818    -0.20900
C1912       C  0.08718165  0.51517756  0.88829895    -0.19400
C1913       C  0.08774046  0.50111174  0.90608326     0.19800
C1914       C  0.10380368  0.48458458  0.90729703     0.01900
C1915       C  0.10339491  0.47057941  0.92545898    -0.14100
C1916       C  0.08768244  0.47284927  0.94159099    -0.11800
C1917       C  0.07200738  0.48919819  0.94035336     0.01500
C1918       C  0.07222276  0.50340408  0.92263845    -0.24000
H1919       H  0.16464801  0.45462160  0.87481105     0.09500
H1920       H  0.13810950  0.45532109  0.90307143     0.13000
H1921       H  0.13351314  0.50810904  0.84273157     0.11800
H1922       H  0.10163279  0.52466385  0.85830474     0.13000
H1923       H  0.07488076  0.52768137  0.88718024     0.12000
H1924       H  0.11485255  0.45758315  0.92761937     0.09100
H1925       H  0.08760215  0.46159735  0.95507534     0.12300
H1926       H  0.06002024  0.51602872  0.92162605     0.14200
C1927       C  0.55645711  0.16828805  0.81172211    -0.01300
C1928       C  0.56205318  0.16364364  0.79024471    -0.09300
C1929       C  0.58261555  0.16899203  0.78226788    -0.18200
C1930       C  0.59809158  0.17939941  0.79563214     0.04200
C1931       C  0.59173657  0.18495758  0.81709462     0.18400
C1932       C  0.57123726  0.17916031  0.82494250    -0.19600
C1933       C  0.60593528  0.19608515  0.83074878    -0.20900
C1934       C  0.62653808  0.20165339  0.82368021    -0.19400
C1935       C  0.63363070  0.19579545  0.80295754     0.19800
C1936       C  0.61961842  0.18445112  0.78863094     0.01900
C1937       C  0.62797439  0.17830856  0.76817272    -0.14100
C1938       C  0.64927418  0.18332580  0.76223897    -0.11800
C1939       C  0.66291593  0.19475632  0.77636004     0.01500
C1940       C  0.65485164  0.20099910  0.79665945    -0.24000
H1941       H  0.55069841  0.15529658  0.77980979     0.09500
H1942       H  0.58592956  0.16477203  0.76564150     0.13000
H1943       H  0.56673786  0.18298238  0.84151468     0.11800
H1944       H  0.60107417  0.20050624  0.84704926     0.13000
H1945       H  0.63714665  0.21029700  0.83465955     0.12000
H1946       H  0.61857217  0.16931848  0.75655193     0.09100
H1947       H  0.65507083  0.17817952  0.74648024     0.12300
H1948       H  0.66523494  0.20970020  0.80781805     0.14200
C1949       C  0.47529413  0.16903726  0.81356715    -0.01300
C1950       C  0.46984413  0.16498667  0.79195010    -0.09300
C1951       C  0.44955554  0.17098323  0.78384085    -0.18200
C1952       C  0.43409276  0.18149509  0.79717836     0.04200
C1953       C  0.44020623  0.18648679  0.81883999     0.18400
C1954       C  0.46051731  0.17999832  0.82687084    -0.19600
C1955       C  0.42592028  0.19769741  0.83244752    -0.20900
C1956       C  0.40538385  0.20353614  0.82524124    -0.19400
C1957       C  0.39846235  0.19795702  0.80438252     0.19800
C1958       C  0.41272514  0.18695944  0.78997083     0.01900
C1959       C  0.40472029  0.18136627  0.76923672    -0.14100
C1960       C  0.38334077  0.18599859  0.76332715    -0.11800
C1961       C  0.36923481  0.19655848  0.77770401     0.01500
C1962       C  0.37711462  0.20284196  0.79808138    -0.24000
H1963       H  0.48117872  0.15666494  0.78140997     0.09500
H1964       H  0.44646405  0.16712605  0.76710156     0.13000
H1965       H  0.46489669  0.18347142  0.84353341     0.11800
H1966       H  0.43059256  0.20181391  0.84886612     0.13000
H1967       H  0.39464173  0.21203538  0.83626015     0.12000
H1968       H  0.41440470  0.17294979  0.75738110     0.09100
H1969       H  0.37778760  0.18105943  0.74743433     0.12300
H1970       H  0.36642357  0.21104529  0.80938110     0.14200
C1971       C  0.51729892  0.12376252  0.86646323    -0.01300
C1972       C  0.50344453  0.12534930  0.88439572    -0.09300
C1973       C  0.50374000  0.10959703  0.90069314    -0.18200
C1974       C  0.51792843  0.09157486  0.89948799     0.04200
C1975       C  0.53227765  0.09035239  0.88149258     0.18400
C1976       C  0.53175362  0.10624414  0.86525383    -0.19600
C1977       C  0.54700515  0.07318584  0.87966868    -0.20900
C1978       C  0.54779648  0.05705711  0.89534689    -0.19400
C1979       C  0.53366669  0.05752246  0.91308003     0.19800
C1980       C  0.51840182  0.07470312  0.91537390     0.01900
C1981       C  0.50411391  0.07404243  0.93330577    -0.14100
C1982       C  0.50511364  0.05718237  0.94834093    -0.11800
C1983       C  0.52043395  0.04057313  0.94617409     0.01500
C1984       C  0.53465729  0.04080696  0.92850847    -0.24000
H1985       H  0.49240841  0.13892605  0.88590653     0.09500
H1986       H  0.49272091  0.11203251  0.91403378     0.13000
H1987       H  0.54239850  0.10470591  0.85133808     0.11800
H1988       H  0.55802894  0.07223330  0.86600530     0.13000
H1989       H  0.55942306  0.04400935  0.89348032     0.12000
H1990       H  0.49186509  0.08618364  0.93607738     0.09100
H1991       H  0.49390099  0.05712349  0.96187466     0.12300
H1992       H  0.54650797  0.02791978  0.92683405     0.14200
C1993       C  0.82715012  0.52598111  0.81193014    -0.01300
C1994       C  0.82372154  0.54142992  0.82819057    -0.09300
C1995       C  0.81845895  0.56272641  0.82302137    -0.18200
C1996       C  0.81652474  0.56940978  0.80120477     0.04200
C1997       C  0.81884126  0.55342372  0.78474712     0.18400
C1998       C  0.82399617  0.53188842  0.79023261    -0.19600
C1999       C  0.81656860  0.55916874  0.76291369    -0.20900
C2000       C  0.81251803  0.58054363  0.75701819    -0.19400
C2001       C  0.81072569  0.59672488  0.77280328     0.19800
C2002       C  0.81259596  0.59138570  0.79515324     0.01900
C2003       C  0.81072690  0.60834241  0.81045982    -0.14100
C2004       C  0.80670175  0.62954737  0.80386571    -0.11800
C2005       C  0.80480845  0.63468722  0.78187673     0.01500
C2006       C  0.80705916  0.61826112  0.76638070    -0.24000
H2007       H  0.82560847  0.53707431  0.84510686     0.09500
H2008       H  0.81632816  0.57357461  0.83651228     0.13000
H2009       H  0.82656250  0.51997670  0.77758110     0.11800
H2010       H  0.81815610  0.54707917  0.75028481     0.13000
H2011       H  0.81097041  0.58448019  0.73996380     0.12000
H2012       H  0.81230742  0.60583188  0.82765889     0.09100
H2013       H  0.80528761  0.64207987  0.81607191     0.12300
H2014       H  0.80553889  0.62219138  0.74931036     0.14200
C2015       C  0.79200088  0.33783442  0.78138089    -0.01300
C2016       C  0.77676052  0.35258385  0.78962159    -0.09300
C2017       C  0.78242507  0.37415155  0.79368678    -0.18200
C2018       C  0.80376131  0.38167988  0.78991879     0.04200
C2019       C  0.81905937  0.36672772  0.78128164     0.18400
C2020       C  0.81302384  0.34524397  0.77687134    -0.19600
C2021       C  0.84051077  0.37310110  0.77761553    -0.20900
C2022       C  0.84740073  0.39375468  0.78319400    -0.19400
C2023       C  0.83292127  0.40871791  0.79219263     0.19800
C2024       C  0.81071744  0.40320371  0.79506131     0.01900
C2025       C  0.79665307  0.41937214  0.80334964    -0.14100
C2026       C  0.80457009  0.43969015  0.80952868    -0.11800
C2027       C  0.82667980  0.44446127  0.80782768     0.01500
C2028       C  0.84067124  0.42904826  0.79876728    -0.24000
H2029       H  0.76034353  0.34742240  0.79306498     0.09500
H2030       H  0.76988135  0.38440649  0.80024082     0.13000
H2031       H  0.82500225  0.33408094  0.77045594     0.11800
H2032       H  0.85221411  0.36183011  0.77090714     0.13000
H2033       H  0.86426905  0.39796799  0.78069475     0.12000
H2034       H  0.77951401  0.41673176  0.80543040     0.09100
H2035       H  0.79348196  0.45148577  0.81634884     0.12300
H2036       H  0.85775159  0.43285585  0.79709013     0.14200
C2037       C  0.87827668  0.48325251  0.85761727    -0.01300
C2038       C  0.89298883  0.46595938  0.85936367    -0.09300
C2039       C  0.90869398  0.46556136  0.87569450    -0.18200
C2040       C  0.91067367  0.48283296  0.89058379     0.04200
C2041       C  0.89649568  0.50078302  0.88818035     0.18400
C2042       C  0.88011403  0.50048134  0.87244133    -0.19600
C2043       C  0.89888793  0.51909214  0.90133503    -0.20900
C2044       C  0.91539638  0.52010228  0.91661208    -0.19400
C2045       C  0.92917539  0.50238965  0.91987660     0.19800
C2046       C  0.92650039  0.48318431  0.90745887     0.01900
C2047       C  0.93945744  0.46504455  0.91279832    -0.14100
C2048       C  0.95490051  0.46622509  0.92928519    -0.11800
C2049       C  0.95845408  0.48564363  0.94039084     0.01500
C2050       C  0.94548143  0.50365529  0.93567910    -0.24000
H2051       H  0.89268042  0.45272334  0.84789687     0.09500
H2052       H  0.91955682  0.45186474  0.87581658     0.13000
H2053       H  0.86874602  0.51384331  0.87193512     0.11800
H2054       H  0.88822943  0.53293670  0.89944879     0.13000
H2055       H  0.91715555  0.53468923  0.92620059     0.12000
H2056       H  0.93761124  0.44959486  0.90489995     0.09100
H2057       H  0.96440810  0.45198716  0.93320312     0.12300
H2058       H  0.94788292  0.51854228  0.94466882     0.14200
C2059       C  0.82025852  0.44393269  0.17784635    -0.01300
C2060       C  0.81245610  0.42894694  0.16275366    -0.09300
C2061       C  0.80647484  0.40814352  0.16921607    -0.18200
C2062       C  0.80850244  0.40153550  0.19109202     0.04200
C2063       C  0.81564645  0.41714122  0.20644872     0.18400
C2064       C  0.82113194  0.43816527  0.19976610    -0.19600
C2065       C  0.81810473  0.41145361  0.22826240    -0.20900
C2066       C  0.81427899  0.39037809  0.23511571    -0.19400
C2067       C  0.80772261  0.37450784  0.22035932     0.19800
C2068       C  0.80434919  0.37990525  0.19819315     0.01900
C2069       C  0.79736891  0.36329798  0.18407553    -0.14100
C2070       C  0.79422672  0.34222901  0.19160302    -0.11800
C2071       C  0.79803673  0.33690011  0.21336093     0.01500
C2072       C  0.80469639  0.35318546  0.22766073    -0.24000
H2073       H  0.81147491  0.43321643  0.14574223     0.09500
H2074       H  0.80094437  0.39747001  0.15659115     0.13000
H2075       H  0.82732280  0.44969408  0.21146748     0.11800
H2076       H  0.82347408  0.42328956  0.24004469     0.13000
H2077       H  0.81670512  0.38640594  0.25205937     0.12000
H2078       H  0.79423761  0.36600967  0.16711527     0.09100
H2079       H  0.78900096  0.32997594  0.18020242     0.12300
H2080       H  0.80744593  0.34929765  0.24458296     0.14200
C2081       C  0.80411199  0.63163525  0.21735129    -0.01300
C2082       C  0.79793999  0.62530847  0.19645877    -0.09300
C2083       C  0.80172573  0.60434408  0.18911352    -0.18200
C2084       C  0.81188860  0.58876833  0.20248969     0.04200
C2085       C  0.81766129  0.59500052  0.22389769     0.18400
C2086       C  0.81386176  0.61630023  0.23107645    -0.19600
C2087       C  0.82723516  0.57995011  0.23795250    -0.20900
C2088       C  0.83130765  0.55883628  0.23115595    -0.19400
C2089       C  0.82622256  0.55233695  0.21002675     0.19800
C2090       C  0.81655928  0.56728527  0.19533707     0.01900
C2091       C  0.81240250  0.56021641  0.17394557    -0.14100
C2092       C  0.81781621  0.53935062  0.16738968    -0.11800
C2093       C  0.82722658  0.52473430  0.18188033     0.01500
C2094       C  0.83118004  0.53112279  0.20327365    -0.24000
H2095       H  0.79021629  0.63668390  0.18553451     0.09500
H2096       H  0.79637006  0.60088965  0.17288007     0.13000
H2097       H  0.81851520  0.62091127  0.24737295     0.11800
H2098       H  0.83160723  0.58453989  0.25432663     0.13000
H2099       H  0.83875302  0.54759161  0.24241776     0.12000
H2100       H  0.80546326  0.57051228  0.16168416     0.09100
H2101       H  0.81487849  0.53461811  0.15073510     0.12300
H2102       H  0.83880677  0.51982491  0.21437603     0.14200
C2103       C  0.95919889  0.48332790  0.05327923    -0.01300
C2104       C  0.95368309  0.46367490  0.06308360    -0.09300
C2105       C  0.93733456  0.46280767  0.07873634    -0.18200
C2106       C  0.92556782  0.48162068  0.08457815     0.04200
C2107       C  0.93073522  0.50133614  0.07385378     0.18400
C2108       C  0.94778722  0.50211798  0.05882970    -0.19600
C2109       C  0.91856864  0.52004942  0.07783934    -0.20900
C2110       C  0.90113232  0.51955947  0.09209712    -0.19400
C2111       C  0.89605743  0.50059540  0.10343078     0.19800
C2112       C  0.90855953  0.48151813  0.10029072     0.01900
C2113       C  0.90374768  0.46332878  0.11330261    -0.14100
C2114       C  0.88708256  0.46401984  0.12860653    -0.11800
C2115       C  0.87413475  0.48259323  0.13111326     0.01500
C2116       C  0.87869264  0.50073974  0.11813423    -0.24000
H2117       H  0.96205923  0.44892983  0.05852807     0.09500
H2118       H  0.93382277  0.44709484  0.08547007     0.13000
H2119       H  0.95181305  0.51724234  0.05084787     0.11800
H2120       H  0.92231330  0.53507291  0.06956601     0.13000
H2121       H  0.89179233  0.53423452  0.09457224     0.12000
H2122       H  0.91307336  0.44857231  0.11256857     0.09100
H2123       H  0.88474642  0.44996640  0.13881159     0.12300
H2124       H  0.86878467  0.51517110  0.11938833     0.14200
C2125       C  0.56059618  0.79836754  0.19119033    -0.01300
C2126       C  0.57502979  0.81372314  0.19944101    -0.09300
C2127       C  0.59603181  0.80785704  0.20536063    -0.18200
C2128       C  0.60344144  0.78632123  0.20285178     0.04200
C2129       C  0.58843326  0.77061568  0.19520695     0.18400
C2130       C  0.56716129  0.77670790  0.18969798    -0.19600
C2131       C  0.59494333  0.74907519  0.19245576    -0.20900
C2132       C  0.61623584  0.74287611  0.19651861    -0.19400
C2133       C  0.63152994  0.75804694  0.20350348     0.19800
C2134       C  0.62529839  0.77992916  0.20710884     0.01900
C2135       C  0.64133983  0.79453078  0.21441248    -0.14100
C2136       C  0.66265552  0.78774895  0.21769282    -0.11800
C2137       C  0.66881410  0.76628328  0.21371218     0.01500
C2138       C  0.65311082  0.75148337  0.20671298    -0.24000
H2139       H  0.57010512  0.83050072  0.20098083     0.09500
H2140       H  0.60616587  0.82068685  0.21137061     0.13000
H2141       H  0.55600667  0.76479212  0.18325464     0.11800
H2142       H  0.58357819  0.73700404  0.18674315     0.13000
H2143       H  0.62083970  0.72613486  0.19391412     0.12000
H2144       H  0.63802005  0.81133719  0.21766632     0.09100
H2145       H  0.67444900  0.79950490  0.22317047     0.12300
H2146       H  0.65765533  0.73476027  0.20384629     0.14200
C2147       C  0.47933193  0.79424406  0.18962884    -0.01300
C2148       C  0.47464722  0.77211552  0.18880535    -0.09300
C2149       C  0.45413793  0.76449306  0.19483545    -0.18200
C2150       C  0.43773528  0.77891443  0.20203921     0.04200
C2151       C  0.44314602  0.80119679  0.20393095     0.18400
C2152       C  0.46367760  0.80859356  0.19763740    -0.19600
C2153       C  0.42790756  0.81610716  0.21167119    -0.20900
C2154       C  0.40709955  0.80950313  0.21709305    -0.19400
C2155       C  0.40090792  0.78787896  0.21460695     0.19800
C2156       C  0.41611111  0.77221088  0.20710721     0.01900
C2157       C  0.40878047  0.75070028  0.20445334    -0.14100
C2158       C  0.38723437  0.74513301  0.20871316    -0.11800
C2159       C  0.37230275  0.76066939  0.21601695     0.01500
C2160       C  0.37940390  0.78196637  0.21918860    -0.24000
H2161       H  0.48666071  0.76078074  0.18281679     0.09500
H2162       H  0.45155478  0.74729989  0.19349568     0.13000
H2163       H  0.46745876  0.82570887  0.19866328     0.11800
H2164       H  0.43204613  0.83307089  0.21333389     0.13000
H2165       H  0.39562238  0.82150221  0.22286052     0.12000
H2166       H  0.41919178  0.73789016  0.19873432     0.09100
H2167       H  0.38225416  0.72851214  0.20624410     0.12300
H2168       H  0.36802254  0.79415952  0.22475865     0.14200
C2169       C  0.51817034  0.84733596  0.14212367    -0.01300
C2170       C  0.50017888  0.86124913  0.14073039    -0.09300
C2171       C  0.49908939  0.87741764  0.12493583    -0.18200
C2172       C  0.51628691  0.88067053  0.11016357     0.04200
C2173       C  0.53500801  0.86742380  0.11232255     0.18400
C2174       C  0.53554813  0.85065593  0.12772032    -0.19600
C2175       C  0.55314741  0.87105157  0.09915654    -0.20900
C2176       C  0.55314927  0.88772440  0.08399577    -0.19400
C2177       C  0.53465736  0.90052065  0.08093041     0.19800
C2178       C  0.51572241  0.89677765  0.09353725     0.01900
C2179       C  0.49688220  0.90887767  0.08851063    -0.14100
C2180       C  0.49701268  0.92425371  0.07189193    -0.11800
C2181       C  0.51605640  0.92870366  0.06038736     0.01500
C2182       C  0.53484145  0.91679832  0.06502609    -0.24000
H2183       H  0.48685482  0.85991668  0.15206984     0.09500
H2184       H  0.48482338  0.88752589  0.12507226     0.13000
H2185       H  0.54956086  0.84008367  0.12824047     0.11800
H2186       H  0.56756748  0.86113809  0.10082802     0.13000
H2187       H  0.56756312  0.89033494  0.07428315     0.12000
H2188       H  0.48163272  0.90631264  0.09665565     0.09100
H2189       H  0.48217859  0.93285008  0.06805531     0.12300
H2190       H  0.54947800  0.91989712  0.05577855     0.14200
C2191       C  0.79995788  0.76725507  0.35242875    -0.01300
C2192       C  0.82193196  0.76588091  0.35788720    -0.09300
C2193       C  0.82887656  0.76976951  0.37899681    -0.18200
C2194       C  0.81395178  0.77505446  0.39559214     0.04200
C2195       C  0.79155824  0.77578301  0.39017666     0.18400
C2196       C  0.78479432  0.77207348  0.36870763    -0.19600
C2197       C  0.77611128  0.78045144  0.40617093    -0.20900
C2198       C  0.78247329  0.78511483  0.42730690    -0.19400
C2199       C  0.80445205  0.78538051  0.43294684     0.19800
C2200       C  0.82049669  0.78006016  0.41721737     0.01900
C2201       C  0.84247046  0.78059764  0.42366035    -0.14100
C2202       C  0.84828826  0.78718344  0.44441579    -0.11800
C2203       C  0.83253361  0.79321513  0.45958998     0.01500
C2204       C  0.81057662  0.79165528  0.45401641    -0.24000
H2205       H  0.83397056  0.76213138  0.34564280     0.09500
H2206       H  0.84607614  0.76858775  0.38169251     0.13000
H2207       H  0.76770399  0.77286704  0.36468358     0.11800
H2208       H  0.75899404  0.78078377  0.40223944     0.13000
H2209       H  0.77013475  0.78899693  0.43921425     0.12000
H2210       H  0.85565091  0.77657732  0.41293610     0.09100
H2211       H  0.86533964  0.78799921  0.44854003     0.12300
H2212       H  0.79832980  0.79637102  0.46573035     0.14200
C2213       C  0.83201668  0.79599046  0.54131769    -0.01300
C2214       C  0.80989362  0.79447203  0.54601692    -0.09300
C2215       C  0.80285490  0.78957630  0.56700896    -0.18200
C2216       C  0.81786831  0.78593188  0.58399792     0.04200
C2217       C  0.84031127  0.78628765  0.57877344     0.18400
C2218       C  0.84712812  0.79141767  0.55767336    -0.19600
C2219       C  0.85584396  0.78184743  0.59470297    -0.20900
C2220       C  0.84958249  0.77716451  0.61584601    -0.19400
C2221       C  0.82765836  0.77730673  0.62170762     0.19800
C2222       C  0.81148273  0.78199603  0.60594643     0.01900
C2223       C  0.78967917  0.78298459  0.61296531    -0.14100
C2224       C  0.78417226  0.77910254  0.63458275    -0.11800
C2225       C  0.80007802  0.77381553  0.64991747     0.01500
C2226       C  0.82182687  0.77296515  0.64332755    -0.24000
H2227       H  0.79797369  0.79785694  0.53357784     0.09500
H2228       H  0.78557394  0.78885756  0.56943988     0.13000
H2229       H  0.86430914  0.79218099  0.55398760     0.11800
H2230       H  0.87297503  0.78198295  0.59077696     0.13000
H2231       H  0.86200696  0.77370893  0.62777604     0.12000
H2232       H  0.77652051  0.78700843  0.60221276     0.09100
H2233       H  0.76725739  0.77996335  0.63924635     0.12300
H2234       H  0.83430381  0.76921366  0.65512654     0.14200
C2235       C  0.87873239  0.84642055  0.49887049    -0.01300
C2236       C  0.87727220  0.86314979  0.48357023    -0.09300
C2237       C  0.89236313  0.87997424  0.48336281    -0.18200
C2238       C  0.90940763  0.88066937  0.49866706     0.04200
C2239       C  0.91067016  0.86370841  0.51422383     0.18400
C2240       C  0.89563495  0.84675900  0.51399496    -0.19600
C2241       C  0.92680596  0.86380736  0.53011938    -0.20900
C2242       C  0.94169313  0.88055724  0.53109841    -0.19400
C2243       C  0.94107897  0.89735431  0.51592330     0.19800
C2244       C  0.92512144  0.89760569  0.49928643     0.01900
C2245       C  0.92577586  0.91469288  0.48396927    -0.14100
C2246       C  0.94159208  0.93079821  0.48524840    -0.11800
C2247       C  0.95702659  0.93040123  0.50182563     0.01500
C2248       C  0.95659619  0.91378698  0.51716860    -0.24000
H2249       H  0.86415610  0.86345962  0.47191708     0.09500
H2250       H  0.89002461  0.89235839  0.47127694     0.13000
H2251       H  0.89713373  0.83372395  0.52568504     0.11800
H2252       H  0.92778784  0.85093611  0.54203464     0.13000
H2253       H  0.95389957  0.88027658  0.54372408     0.12000
H2254       H  0.91454810  0.91587716  0.47065437     0.09100
H2255       H  0.94196326  0.94350075  0.47313354     0.12300
H2256       H  0.96869935  0.91352624  0.52991652     0.14200
C2257       C  0.82507838  0.16972817  0.53846024    -0.01300
C2258       C  0.82255036  0.19190647  0.54236939    -0.09300
C2259       C  0.81662504  0.19940410  0.56290870    -0.18200
C2260       C  0.81313697  0.18482139  0.58027791     0.04200
C2261       C  0.81445111  0.16227849  0.57579550     0.18400
C2262       C  0.82027387  0.15500233  0.55506282    -0.19600
C2263       C  0.81064898  0.14709177  0.59219030    -0.20900
C2264       C  0.80606557  0.15378679  0.61317921    -0.19400
C2265       C  0.80538429  0.17582600  0.61832426     0.19800
C2266       C  0.80886678  0.19171456  0.60198377     0.01900
C2267       C  0.80852010  0.21374560  0.60825479    -0.14100
C2268       C  0.80508871  0.21966084  0.62983849    -0.11800
C2269       C  0.80154048  0.20391392  0.64578140     0.01500
C2270       C  0.80153377  0.18203708  0.63985527    -0.24000
H2271       H  0.82613630  0.20357696  0.52975625     0.09500
H2272       H  0.81536787  0.21669928  0.56477025     0.13000
H2273       H  0.82176638  0.13777643  0.55198756     0.11800
H2274       H  0.81151918  0.12989195  0.58882098     0.13000
H2275       H  0.80341008  0.14161854  0.62556711     0.12000
H2276       H  0.81112579  0.22678196  0.59694598     0.09100
H2277       H  0.80496944  0.23668957  0.63402811     0.12300
H2278       H  0.79892798  0.16974186  0.65214397     0.14200
C2279       C  0.79969263  0.20104425  0.35043860    -0.01300
C2280       C  0.82106426  0.20521390  0.35684835    -0.09300
C2281       C  0.82802989  0.20037152  0.37783777    -0.18200
C2282       C  0.81370674  0.19126439  0.39327188     0.04200
C2283       C  0.79189454  0.18759933  0.38684393     0.18400
C2284       C  0.78518669  0.19231174  0.36561032    -0.19600
C2285       C  0.77687758  0.17916991  0.40161189    -0.20900
C2286       C  0.78307608  0.17408640  0.42266037    -0.19400
C2287       C  0.80453097  0.17697298  0.42936936     0.19800
C2288       C  0.82021367  0.18554275  0.41476924     0.01900
C2289       C  0.84179940  0.18755264  0.42221251    -0.14100
C2290       C  0.84758672  0.18090678  0.44304404    -0.11800
C2291       C  0.83209409  0.17239212  0.45725682     0.01500
C2292       C  0.81051634  0.17081942  0.45047216    -0.24000
H2293       H  0.83260478  0.21201577  0.34549411     0.09500
H2294       H  0.84470457  0.20401135  0.38146375     0.13000
H2295       H  0.76854177  0.18921839  0.36092318     0.11800
H2296       H  0.76019967  0.17645104  0.39683634     0.13000
H2297       H  0.77106299  0.16752937  0.43367868     0.12000
H2298       H  0.85469746  0.19373901  0.41220465     0.09100
H2299       H  0.86435379  0.18228117  0.44806607     0.12300
H2300       H  0.79854264  0.16397862  0.46137885     0.14200
C2301       C  0.96188142  0.04279977  0.50581475    -0.01300
C2302       C  0.96194206  0.05907562  0.52156558    -0.09300
C2303       C  0.94652395  0.07568285  0.52106380    -0.18200
C2304       C  0.93045664  0.07641932  0.50469020     0.04200
C2305       C  0.93060210  0.05977994  0.48875136     0.18400
C2306       C  0.94632806  0.04336783  0.48934695    -0.19600
C2307       C  0.91490913  0.05943422  0.47241538    -0.20900
C2308       C  0.89883445  0.07516675  0.47162278    -0.19400
C2309       C  0.89821336  0.09178867  0.48698990     0.19800
C2310       C  0.91411311  0.09283759  0.50364463     0.01900
C2311       C  0.91286494  0.11023691  0.51849964    -0.14100
C2312       C  0.89630472  0.12562416  0.51707959    -0.11800
C2313       C  0.88048243  0.12425328  0.50085925     0.01500
C2314       C  0.88164577  0.10733094  0.48580916    -0.24000
H2315       H  0.97389148  0.05879728  0.53442153     0.09500
H2316       H  0.94746490  0.08752455  0.53383645     0.13000
H2317       H  0.94638178  0.03077768  0.47709707     0.11800
H2318       H  0.91494375  0.04676922  0.46026302     0.13000
H2319       H  0.88678947  0.07432596  0.45887180     0.12000
H2320       H  0.92445995  0.11246196  0.53134759     0.09100
H2321       H  0.89597893  0.13878957  0.52866489     0.12300
H2322       H  0.86935917  0.10602288  0.47332147     0.14200
C2323       C  0.20399456  0.79576460  0.54045235    -0.01300
C2324       C  0.20427148  0.77353192  0.54488876    -0.09300
C2325       C  0.21050536  0.76583634  0.56532418    -0.18200
C2326       C  0.21692666  0.78025629  0.58196618     0.04200
C2327       C  0.21755183  0.80272668  0.57695036     0.18400
C2328       C  0.21089693  0.81022420  0.55649593    -0.19600
C2329       C  0.22463665  0.81765511  0.59243457    -0.20900
C2330       C  0.23098740  0.81081447  0.61293686    -0.19400
C2331       C  0.22995610  0.78891780  0.61866889     0.19800
C2332       C  0.22270952  0.77330257  0.60336947     0.01900
C2333       C  0.22115549  0.75153700  0.61035698    -0.14100
C2334       C  0.22659663  0.74559665  0.63156434    -0.11800
C2335       C  0.23406856  0.76099873  0.64647560     0.01500
C2336       C  0.23582519  0.78263354  0.63978861    -0.24000
H2337       H  0.19903486  0.76208863  0.53267850     0.09500
H2338       H  0.21013554  0.74854286  0.56760460     0.13000
H2339       H  0.21100644  0.82743919  0.55301490     0.11800
H2340       H  0.22528904  0.83478087  0.58865392     0.13000
H2341       H  0.23643147  0.82280920  0.62452255     0.12000
H2342       H  0.21541234  0.73879247  0.59993192     0.09100
H2343       H  0.22497249  0.72878440  0.63628776     0.12300
H2344       H  0.24129039  0.79477100  0.65122696     0.14200
C2345       C  0.20253020  0.79580445  0.45884050    -0.01300
C2346       C  0.18814266  0.78486900  0.44522314    -0.09300
C2347       C  0.19460397  0.77800618  0.42463327    -0.18200
C2348       C  0.21572055  0.78230750  0.41675611     0.04200
C2349       C  0.23021888  0.79366000  0.43060606     0.18400
C2350       C  0.22365110  0.79994015  0.45157856    -0.19600
C2351       C  0.25097141  0.79914486  0.42322523    -0.20900
C2352       C  0.25751167  0.79399313  0.40223959    -0.19400
C2353       C  0.24365418  0.78279473  0.38822387     0.19800
C2354       C  0.22274624  0.77633112  0.39544637     0.01900
C2355       C  0.20975266  0.76427726  0.38095598    -0.14100
C2356       C  0.21684282  0.75964128  0.35994853    -0.11800
C2357       C  0.23708490  0.76682501  0.35252534     0.01500
C2358       C  0.25053119  0.77816763  0.36694003    -0.24000
H2359       H  0.17169600  0.78174246  0.45054048     0.09500
H2360       H  0.18249220  0.76989139  0.41507373     0.13000
H2361       H  0.23469673  0.80875020  0.46199307     0.11800
H2362       H  0.26209186  0.80785420  0.43362626     0.13000
H2363       H  0.27353430  0.79884543  0.39691903     0.12000
H2364       H  0.19402498  0.75812742  0.38536918     0.09100
H2365       H  0.20621128  0.75056034  0.34937316     0.12300
H2366       H  0.26638049  0.78353531  0.36158147     0.14200
C2367       C  0.06977299  0.92466567  0.50370067    -0.01300
C2368       C  0.08622238  0.92651737  0.48818855    -0.09300
C2369       C  0.10259866  0.91097888  0.48668780    -0.18200
C2370       C  0.10303056  0.89286432  0.50073302     0.04200
C2371       C  0.08578070  0.89060037  0.51590850     0.18400
C2372       C  0.06941461  0.90647838  0.51730248    -0.19600
C2373       C  0.08510733  0.87261830  0.52972280    -0.20900
C2374       C  0.10135179  0.85695558  0.52902097    -0.19400
C2375       C  0.11882249  0.85897227  0.51464565     0.19800
C2376       C  0.11994174  0.87696838  0.50029310     0.01900
C2377       C  0.13809633  0.87838804  0.48632297    -0.14100
C2378       C  0.15423703  0.86250835  0.48641081    -0.11800
C2379       C  0.15300655  0.84471148  0.50042740     0.01500
C2380       C  0.13524884  0.84310998  0.51458703    -0.24000
H2381       H  0.08651399  0.94029129  0.47730504     0.09500
H2382       H  0.11467890  0.91365750  0.47436501     0.13000
H2383       H  0.05654315  0.90490478  0.52918492     0.11800
H2384       H  0.07194816  0.87068381  0.54121457     0.13000
H2385       H  0.10034695  0.84325619  0.53996317     0.12000
H2386       H  0.14044106  0.89166275  0.47524459     0.09100
H2387       H  0.16796486  0.86431914  0.47559784     0.12300
H2388       H  0.13408617  0.82933198  0.52542542     0.14200
loop_ 
_geom_bond_atom_site_label_1 
_geom_bond_atom_site_label_2 
_geom_bond_distance 
_geom_bond_site_symmetry_2 
_ccdc_geom_bond_type 
C1            C2   1.407       .  A
C1            C6   1.408       .  A
C1         C2323   1.485       .  S
C2            C3   1.405       .  A
C2            H7   1.084       .  S
C3            C4   1.405       .  A
C3         C2379   1.488       .  S
C4            C5   1.404       .  A
C4            H8   1.084       .  S
C5            C6   1.406       .  A
C5         C2345   1.481       .  S
C6            H9   1.084       .  S
C10          C11   1.405       .  A
C10          C15   1.406       .  A
C10        C2257   1.482       .  S
C11          C12   1.402       .  A
C11          H16   1.083       .  S
C12          C13   1.403       .  A
C12        C2313   1.484       .  S
C13          C14   1.404       .  A
C13          H17   1.084       .  S
C14          C15   1.405       .  A
C14        C2291   1.479       .  S
C15          H18   1.084       .  S
C19          C20   1.403       .  A
C19          C24   1.408       .  A
C19        C2213   1.482       .  S
C20          C21   1.402       .  A
C20          H25   1.084       .  S
C21          C22   1.400       .  A
C21        C2235   1.484       .  S
C22          C23   1.404       .  A
C22          H26   1.084       .  S
C23          C24   1.407       .  A
C23        C2203   1.480       .  S
C24          H27   1.083       .  S
C28          C29   1.405       .  A
C28          C33   1.404       .  A
C28        C2125   1.479       .  S
C29          C30   1.406       .  A
C29          H34   1.082       .  S
C30          C31   1.407       .  A
C30        C2169   1.497       .  S
C31          C32   1.404       .  A
C31          H35   1.082       .  S
C32          C33   1.403       .  A
C32        C2147   1.480       .  S
C33          H36   1.084       .  S
C37          C38   1.405       .  A
C37          C42   1.405       .  A
C37        C2059   1.479       .  S
C38          C39   1.406       .  A
C38          H43   1.082       .  S
C39          C40   1.406       .  A
C39        C2115   1.495       .  S
C40          C41   1.401       .  A
C40          H44   1.082       .  S
C41          C42   1.401       .  A
C41        C2093   1.473       .  S
C42          H45   1.084       .  S
C46          C47   1.408       .  A
C46          C51   1.407       .  A
C46        C2027   1.483       .  S
C47          C48   1.409       .  A
C47          H52   1.082       .  S
C48          C49   1.404       .  A
C48        C2037   1.499       .  S
C49          C50   1.402       .  A
C49          H53   1.082       .  S
C50          C51   1.405       .  A
C50        C1993   1.482       .  S
C51          H54   1.084       .  S
C55          C56   1.402       .  A
C55          C60   1.401       .  A
C55        C1927   1.476       .  S
C56          C57   1.405       .  A
C56          H61   1.084       .  S
C57          C58   1.407       .  A
C57        C1949   1.479       .  S
C58          C59   1.406       .  A
C58          H62   1.084       .  S
C59          C60   1.403       .  A
C59        C1971   1.486       .  S
C60          H63   1.084       .  S
C64          C65   1.404       .  A
C64          C69   1.407       .  A
C64        C1861   1.481       .  S
C65          C66   1.403       .  A
C65          H70   1.084       .  S
C66          C67   1.404       .  A
C66        C1905   1.487       .  S
C67          C68   1.406       .  A
C67          H71   1.084       .  S
C68          C69   1.407       .  A
C68        C1883   1.486       .  S
C69          H72   1.084       .  S
C73          C74   1.406       .  A
C73          C78   1.405       .  A
C73        C1795   1.488       .  S
C74          C75   1.406       .  A
C74          H79   1.081       .  S
C75          C76   1.407       .  A
C75        C1839   1.495       .  S
C76          C77   1.406       .  A
C76          H80   1.082       .  S
C77          C78   1.406       .  A
C77        C1817   1.488       .  S
C78          H81   1.083       .  S
C82          C83   1.406       .  A
C82          C87   1.409       .  A
C82        C1785   1.492       .  S
C83          C84   1.408       .  A
C83          H88   1.081       .  S
C84          C85   1.408   1_455  A
C84        C1729   1.499       .  S
C85          C86   1.404       .  A
C85          H89   1.082       .  S
C86          C87   1.407   1_655  A
C86        C1751   1.485       .  S
C87          H90   1.083       .  S
O91         Mg93   2.146       .  S
O91         Mg99   2.156       .  S
O91         C126   1.236       .  S
C92         H131   1.081       .  S
C92         O105   1.237       .  S
C92         O129   1.271       .  A
Mg93        O122   2.147       .  S
Mg93        O137   2.292       .  S
Mg93        O133   2.284       .  S
Mg93        O104   2.295       .  S
O94        Mg136   2.158       .  S
O94        Mg119   2.148       .  S
O94         C115   1.237       .  S
O95         C126   1.270       .  A
O95        Mg119   2.298       .  S
C96        C1675   1.480       .  S
C96          O98   1.273       .  A
C96         O110   1.278       .  A
O97         C125   1.271       .  A
O97         Mg99   2.299       .  S
O98        Mg130   2.248       .  S
Mg99        O105   2.141       .  S
Mg99        O113   2.272       .  S
Mg99        O101   2.327       .  S
C100       C1773   1.485       .  S
C100        O138   1.275       .  A
C100        O106   1.277       .  A
O101        C108   1.279       .  A
H102        C115   1.081       .  S
C103        H128   1.081       .  S
C103        O117   1.237       .  S
C103        O118   1.270       .  A
O104        C127   1.271       .  A
O105       Mg119   2.155       .  S
O106       Mg136   2.313       .  S
C107       C1619   1.483       .  S
C107        O120   1.272       .  A
C107        O112   1.279       .  A
C108       C1719   1.492       .  S
C108        O135   1.276       .  A
Mg109       O116   2.140       .  S
Mg109       O117   2.153       .  S
Mg109       O110   2.320       .  S
Mg109       O111   2.297       .  S
Mg109       O138   2.278       .  S
O111        C115   1.271       .  A
O112       Mg119   2.321       .  S
O113        C132   1.274       .  A
O114        C134   1.276       .  A
O114       Mg130   2.310       .  S
O116       Mg130   2.152       .  S
O116        C127   1.237       .  S
O117       Mg136   2.132       .  S
O118       Mg130   2.292       .  S
Mg119       O135   2.289       .  S
O120       Mg136   2.255       .  S
H121        C126   1.081       .  S
O122       Mg130   2.130       .  S
O122        C125   1.237       .  S
H123        C125   1.081       .  S
H124        C127   1.081       .  S
O129       Mg136   2.297       .  S
C132       C1641   1.482       .  S
C132        O137   1.275       .  A
O133        C134   1.275       .  A
C134       C1697   1.489       .  S
C139        C140   1.410       .  A
C139        C144   1.406       .  A
C139       C1609   1.487       .  S
C140        C141   1.409   1_565  A
C140        H145   1.083       .  S
C141        C142   1.405       .  A
C141       C1707   1.490       .  S
C142        C143   1.409   1_545  A
C142        H146   1.081       .  S
C143        C144   1.410       .  A
C143       C1587   1.504       .  S
C144        H147   1.082       .  S
O148       Mg150   2.138       .  S
O148       Mg156   2.154       .  S
O148        C183   1.237       .  S
C149        H188   1.081       .  S
C149        O162   1.236       .  S
C149        O186   1.270       .  A
Mg150       O179   2.148       .  S
Mg150       O194   2.320       .  S
Mg150       O190   2.278       .  S
Mg150       O161   2.301       .  S
O151       Mg193   2.150       .  S
O151       Mg176   2.132       .  S
O151        C172   1.237       .  S
O152        C183   1.270       .  A
O152       Mg176   2.291       .  S
C153       C2357   1.488       .  S
C153        O155   1.274       .  A
C153        O167   1.277       .  A
O154        C182   1.271       .  A
O154       Mg156   2.296       .  S
O155       Mg187   2.276       .  S
Mg156       O162   2.139       .  S
Mg156       O170   2.264       .  S
Mg156       O158   2.314       .  S
C157       C1553   1.488       .  S
C157        O195   1.274       .  A
C157        O163   1.277       .  A
O158        C165   1.277       .  A
H159        C172   1.081       .  S
C160        H185   1.081       .  S
C160        O174   1.238       .  S
C160        O175   1.273       .  A
O161        C184   1.272       .  A
O162       Mg176   2.156       .  S
O163       Mg193   2.312       .  S
C164       C1521   1.485       .  S
C164        O177   1.275       .  A
C164        O169   1.276       .  A
C165       C1531   1.479       .  S
C165        O192   1.272       .  A
Mg166       O173   2.148       .  S
Mg166       O174   2.152       .  S
Mg166       O167   2.312       .  S
Mg166       O168   2.298       .  S
Mg166       O195   2.275       .  S
O168        C172   1.270       .  A
O169       Mg176   2.309       .  S
O170        C189   1.274       .  A
O171        C191   1.280       .  A
O171       Mg187   2.339       .  S
O173       Mg187   2.152       .  S
O173        C184   1.238       .  S
O174       Mg193   2.149       .  S
O175       Mg187   2.307       .  S
Mg176       O192   2.249       .  S
O177       Mg193   2.276       .  S
H178        C183   1.081       .  S
O179       Mg187   2.138       .  S
O179        C182   1.238       .  S
H180        C182   1.081       .  S
H181        C184   1.081       .  S
O186       Mg193   2.294       .  S
C189       C2159   1.485       .  S
C189        O194   1.279       .  A
O190        C191   1.275       .  A
C191       C1597   1.494       .  S
O196       Mg198   2.139       .  S
O196       Mg204   2.157       .  S
O196        C231   1.236       .  S
C197        H236   1.081       .  S
C197        O210   1.237       .  S
C197        O234   1.271       .  A
Mg198       O227   2.154       .  S
Mg198       O242   2.288       .  S
Mg198       O238   2.264       .  S
Mg198       O209   2.289       .  S
O199       Mg241   2.156       .  S
O199       Mg224   2.147       .  S
O199        C220   1.237       .  S
O200        C231   1.269       .  A
O200       Mg224   2.293       .  S
C201       C1443   1.482       .  S
C201        O203   1.274       .  A
C201        O215   1.276       .  A
O202        C230   1.270       .  A
O202       Mg204   2.295       .  S
O203       Mg235   2.261       .  S
Mg204       O210   2.142       .  S
Mg204       O218   2.273       .  S
Mg204       O206   2.326       .  S
C205       C1487   1.483       .  S
C205        O243   1.272       .  A
C205        O211   1.277       .  A
O206        C213   1.279       .  A
H207        C220   1.081       .  S
C208        H233   1.081       .  S
C208        O222   1.237       .  S
C208        O223   1.271       .  A
O209        C232   1.269       .  A
O210       Mg224   2.154       .  S
O211       Mg241   2.317       .  S
C212       C2279   1.482       .  S
C212        O225   1.273       .  A
C212        O217   1.276       .  A
C213       C1763   1.489       .  S
C213        O240   1.275       .  A
Mg214       O221   2.131       .  S
Mg214       O222   2.153       .  S
Mg214       O215   2.308       .  S
Mg214       O216   2.299       .  S
Mg214       O243   2.261       .  S
O216        C220   1.271       .  A
O217       Mg224   2.307       .  S
O218        C237   1.275       .  A
O219        C239   1.278       .  A
O219       Mg235   2.318       .  S
O221       Mg235   2.152       .  S
O221        C232   1.236       .  S
O222       Mg241   2.137       .  S
O223       Mg235   2.297       .  S
Mg224       O240   2.272       .  S
O225       Mg241   2.261       .  S
H226        C231   1.081       .  S
O227       Mg235   2.133       .  S
O227        C230   1.237       .  S
H228        C230   1.081       .  S
H229        C232   1.081       .  S
O234       Mg241   2.300       .  S
C237       C2071   1.480       .  S
C237        O242   1.274       .  A
O238        C239   1.273       .  A
C239       C1465   1.483       .  S
C244        C245   1.404       .  A
C244        C249   1.409       .  A
C244       C1421   1.482       .  S
C245        C246   1.401       .  A
C245        H250   1.083       .  S
C246        C247   1.404   1_565  A
C246       C1399   1.489       .  S
C247        C248   1.405       .  A
C247        H251   1.083       .  S
C248        C249   1.408   1_545  A
C248       C1499   1.485       .  S
C249        H252   1.083       .  S
O253       Mg255   2.140       .  S
O253       Mg261   2.151       .  S
O253        C288   1.238       .  S
C254        H293   1.081       .  S
C254        O267   1.237       .  S
C254        O291   1.270       .  A
Mg255       O284   2.159       .  S
Mg255       O299   2.324       .  S
Mg255       O295   2.274       .  S
Mg255       O266   2.296       .  S
O256       Mg298   2.150       .  S
O256       Mg281   2.128       .  S
O256        C277   1.237       .  S
O257        C288   1.271       .  A
O257       Mg281   2.300       .  S
C258       C1377   1.483       .  S
C258        O260   1.274       .  A
C258        O272   1.277       .  A
O259        C287   1.270       .  A
O259       Mg261   2.294       .  S
O260       Mg292   2.273       .  S
Mg261       O267   2.131       .  S
Mg261       O275   2.251       .  S
Mg261       O263   2.292       .  S
C262       C2081   1.482       .  S
C262        O300   1.274       .  A
C262        O268   1.276       .  A
O263        C270   1.275       .  A
H264        C277   1.081       .  S
C265        H290   1.081       .  S
C265        O279   1.237       .  S
C265        O280   1.270       .  A
O266        C289   1.270       .  A
O267       Mg281   2.153       .  S
O268       Mg298   2.295       .  S
C269       C1355   1.489       .  S
C269        O282   1.275       .  A
C269        O274   1.278       .  A
C270       C2137   1.479       .  S
C270        O297   1.273       .  A
Mg271       O278   2.137       .  S
Mg271       O279   2.157       .  S
Mg271       O272   2.308       .  S
Mg271       O273   2.294       .  S
Mg271       O300   2.270       .  S
O273        C277   1.270       .  A
O274       Mg281   2.321       .  S
O275        C294   1.272       .  A
O276        C296   1.276       .  A
O276       Mg292   2.297       .  S
O278       Mg292   2.155       .  S
O278        C289   1.237       .  S
O279       Mg298   2.138       .  S
O280       Mg292   2.293       .  S
Mg281       O297   2.264       .  S
O282       Mg298   2.279       .  S
H283        C288   1.081       .  S
O284       Mg292   2.135       .  S
O284        C287   1.237       .  S
H285        C287   1.081       .  S
H286        C289   1.081       .  S
O291       Mg298   2.291       .  S
C294       C1433   1.484       .  S
C294        O299   1.278       .  A
O295        C296   1.274       .  A
C296       C2191   1.480       .  S
C301        C302   1.406       .  A
C301        C306   1.402       .  A
C301       C1565   1.475       .  S
C302        C303   1.407   1_455  A
C302        H307   1.083       .  S
C303        C304   1.404       .  A
C303       C1389   1.483       .  S
C304        C305   1.404   1_655  A
C304        H308   1.083       .  S
C305        C306   1.404       .  A
C305       C1333   1.489       .  S
C306        H309   1.083       .  S
C310        C311   1.402       .  A
C310        C315   1.403   1_554  A
C310       C1685   1.479       .  S
C311        C312   1.408   1_554  A
C311        H316   1.082       .  S
C312        C313   1.408       .  A
C312       C1289   1.499       .  S
C313        C314   1.405       .  A
C313        H317   1.082       .  S
C314        C315   1.405       .  A
C314       C1323   1.479       .  S
C315        H318   1.084       .  S
O319       Mg321   2.138       .  S
O319       Mg327   2.150       .  S
O319        C354   1.237       .  S
C320        H359   1.081       .  S
C320        O333   1.237       .  S
C320        O357   1.271       .  A
Mg321       O350   2.155       .  S
Mg321       O365   2.308       .  S
Mg321       O361   2.255       .  S
Mg321       O332   2.294       .  S
O322       Mg364   2.151       .  S
O322       Mg347   2.132       .  S
O322        C343   1.237       .  S
O323        C354   1.271       .  A
O323       Mg347   2.298       .  S
C324       C1257   1.483       .  S
C324        O326   1.275       .  A
C324        O338   1.275       .  A
O325        C353   1.271       .  A
O325       Mg327   2.298       .  S
O326       Mg358   2.279       .  S
Mg327       O333   2.133       .  S
Mg327       O341   2.258       .  S
Mg327       O329   2.310       .  S
C328       C1223   1.486       .  S
C328        O366   1.273       .  A
C328        O334   1.278       .  A
O329        C336   1.276       .  A
H330        C343   1.081       .  S
C331        H356   1.081       .  S
C331        O345   1.238       .  S
C331        O346   1.272       .  A
O332        C355   1.270       .  A
O333       Mg347   2.149       .  S
O334       Mg364   2.314       .  S
C335       C1279   1.488       .  S
C335        O348   1.275       .  A
C335        O340   1.277       .  A
C336       C1961   1.486       .  S
C336        O363   1.274       .  A
Mg337       O344   2.134       .  S
Mg337       O345   2.151       .  S
Mg337       O338   2.289       .  S
Mg337       O339   2.293       .  S
Mg337       O366   2.269       .  S
O339        C343   1.270       .  A
O340       Mg347   2.307       .  S
O341        C360   1.273       .  A
O342        C362   1.279       .  A
O342       Mg358   2.324       .  S
O344       Mg358   2.152       .  S
O344        C355   1.236       .  S
O345       Mg364   2.142       .  S
O346       Mg358   2.301       .  S
Mg347       O363   2.269       .  S
O348       Mg364   2.281       .  S
H349        C354   1.081       .  S
O350       Mg358   2.141       .  S
O350        C353   1.237       .  S
H351        C353   1.081       .  S
H352        C355   1.081       .  S
O357       Mg364   2.297       .  S
C360       C1311   1.482       .  S
C360        O365   1.276       .  A
O361        C362   1.273       .  A
C362       C1873   1.485       .  S
C367        C368   1.405       .  A
C367        C372   1.410       .  A
C367       C1201   1.488       .  S
C368        C369   1.405       .  A
C368        H373   1.084       .  S
C369        C370   1.403   1_565  A
C369       C1191   1.488       .  S
C370        C371   1.404       .  A
C370        H374   1.084       .  S
C371        C372   1.408   1_545  A
C371       C1267   1.482       .  S
C372        H375   1.083       .  S
O376       Mg378   2.146       .  S
O376       Mg384   2.154       .  S
O376        C411   1.238       .  S
C377        H416   1.081       .  S
C377        O390   1.237       .  S
C377        O414   1.271       .  A
Mg378       O407   2.155       .  S
Mg378       O422   2.318       .  S
Mg378       O418   2.270       .  S
Mg378       O389   2.289       .  S
O379       Mg421   2.153       .  S
O379       Mg404   2.135       .  S
O379        C400   1.238       .  S
O380        C411   1.272       .  A
O380       Mg404   2.302       .  S
C381       C1807   1.479       .  S
C381        O383   1.276       .  A
C381        O395   1.275       .  A
O382        C410   1.271       .  A
O382       Mg384   2.294       .  S
O383       Mg415   2.281       .  S
Mg384       O390   2.144       .  S
Mg384       O398   2.271       .  S
Mg384       O386   2.300       .  S
C385       C1135   1.485       .  S
C385        O423   1.273       .  A
C385        O391   1.277       .  A
O386        C393   1.276       .  A
H387        C400   1.081       .  S
C388        H413   1.081       .  S
C388        O402   1.238       .  S
C388        O403   1.271       .  A
O389        C412   1.269       .  A
O390       Mg404   2.155       .  S
O391       Mg421   2.312       .  S
C392       C1895   1.486       .  S
C392        O405   1.274       .  A
C392        O397   1.279       .  A
C393       C1169   1.485       .  S
C393        O420   1.275       .  A
Mg394       O401   2.133       .  S
Mg394       O402   2.152       .  S
Mg394       O395   2.289       .  S
Mg394       O396   2.294       .  S
Mg394       O423   2.270       .  S
O396        C400   1.271       .  A
O397       Mg404   2.325       .  S
O398        C417   1.274       .  A
O399        C419   1.280       .  A
O399       Mg415   2.336       .  S
O401       Mg415   2.157       .  S
O401        C412   1.235       .  S
O402       Mg421   2.133       .  S
O403       Mg415   2.296       .  S
Mg404       O420   2.281       .  S
O405       Mg421   2.270       .  S
H406        C411   1.081       .  S
O407       Mg415   2.141       .  S
O407        C410   1.237       .  S
H408        C410   1.081       .  S
H409        C412   1.081       .  S
O414       Mg421   2.299       .  S
C417       C2335   1.487       .  S
C417        O422   1.278       .  A
O418        C419   1.276       .  A
C419       C1213   1.489       .  S
C424        C425   1.404       .  A
C424        C429   1.406       .  A
C424       C1157   1.481       .  S
C425        C426   1.402   1_455  A
C425        H430   1.084       .  S
C426        C427   1.403       .  A
C426       C1125   1.476       .  S
C427        C428   1.408   1_655  A
C427        H431   1.083       .  S
C428        C429   1.409       .  A
C428       C1103   1.498       .  S
C429        H432   1.082       .  S
C433        C434   1.402       .  A
C433        C438   1.403       .  A
C433       C1245   1.474       .  S
C434        C435   1.404       .  A
C434        H439   1.083       .  S
C435        C436   1.405   1_455  A
C435       C1047   1.489       .  S
C436        C437   1.404       .  A
C436        H440   1.083       .  S
C437        C438   1.403   1_655  A
C437       C1081   1.476       .  S
C438        H441   1.084       .  S
O442       Mg444   2.140       .  S
O442       Mg450   2.155       .  S
O442        C477   1.238       .  S
C443        H482   1.081       .  S
C443        O456   1.237       .  S
C443        O480   1.270       .  A
Mg444       O473   2.150       .  S
Mg444       O488   2.313       .  S
Mg444       O484   2.286       .  S
Mg444       O455   2.298       .  S
O445       Mg487   2.151       .  S
O445       Mg470   2.130       .  S
O445        C466   1.236       .  S
O446        C477   1.271       .  A
O446       Mg470   2.297       .  S
C447       C2269   1.477       .  S
C447        O449   1.272       .  A
C447        O461   1.274       .  A
O448        C476   1.270       .  A
O448       Mg450   2.293       .  S
O449       Mg481   2.262       .  S
Mg450       O456   2.145       .  S
Mg450       O464   2.288       .  S
Mg450       O452   2.308       .  S
C451       C1037   1.483       .  S
C451        O489   1.273       .  A
C451        O457   1.276       .  A
O452        C459   1.278       .  A
H453        C466   1.081       .  S
C454        H479   1.081       .  S
C454        O468   1.237       .  S
C454        O469   1.270       .  A
O455        C478   1.271       .  A
O456       Mg470   2.156       .  S
O457       Mg487   2.301       .  S
C458       C1939   1.485       .  S
C458        O471   1.273       .  A
C458        O463   1.278       .  A
C459       C1003   1.479       .  S
C459        O486   1.273       .  A
Mg460       O467   2.138       .  S
Mg460       O468   2.156       .  S
Mg460       O461   2.292       .  S
Mg460       O462   2.292       .  S
Mg460       O489   2.267       .  S
O462        C466   1.270       .  A
O463       Mg470   2.317       .  S
O464        C483   1.276       .  A
O465        C485   1.276       .  A
O465       Mg481   2.298       .  S
O467       Mg481   2.155       .  S
O467        C478   1.237       .  S
O468       Mg487   2.131       .  S
O469       Mg481   2.294       .  S
Mg470       O486   2.265       .  S
O471       Mg487   2.261       .  S
H472        C477   1.081       .  S
O473       Mg481   2.126       .  S
O473        C476   1.237       .  S
H474        C476   1.081       .  S
H475        C478   1.081       .  S
O480       Mg487   2.296       .  S
C483       C2015   1.489       .  S
C483        O488   1.278       .  A
O484        C485   1.275       .  A
C485       C1069   1.486       .  S
C490        C491   1.402       .  A
C490        C495   1.403       .  A
C490        C981   1.476       .  S
C491        C492   1.403   1_565  A
C491        H496   1.084       .  S
C492        C493   1.403       .  A
C492       C1025   1.474       .  S
C493        C494   1.403   1_545  A
C493        H497   1.084       .  S
C494        C495   1.401       .  A
C494        C959   1.484       .  S
C495        H498   1.083       .  S
O499       Mg501   2.125       .  S
O499       Mg507   2.152       .  S
O499        C534   1.237       .  S
C500        H539   1.081       .  S
C500        O513   1.237       .  S
C500        O537   1.270       .  A
Mg501       O530   2.150       .  S
Mg501       O545   2.316       .  S
Mg501       O541   2.260       .  S
Mg501       O512   2.300       .  S
O502       Mg544   2.150       .  S
O502       Mg527   2.113       .  S
O502        C523   1.235       .  S
O503        C534   1.270       .  A
O503       Mg527   2.291       .  S
C504       C2005   1.473       .  S
C504        O506   1.272       .  A
C504        O518   1.275       .  A
O505        C533   1.269       .  A
O505       Mg507   2.291       .  S
O506       Mg538   2.261       .  S
Mg507       O513   2.137       .  S
Mg507       O521   2.264       .  S
Mg507       O509   2.282       .  S
C508        C937   1.484       .  S
C508        O546   1.275       .  A
C508        O514   1.278       .  A
O509        C516   1.274       .  A
H510        C523   1.081       .  S
C511        H536   1.081       .  S
C511        O525   1.238       .  S
C511        O526   1.272       .  A
O512        C535   1.271       .  A
O513       Mg527   2.157       .  S
O514       Mg544   2.315       .  S
C515       C1829   1.484       .  S
C515        O528   1.277       .  A
C515        O520   1.275       .  A
C516        C993   1.470       .  S
C516        O543   1.270       .  A
Mg517       O524   2.145       .  S
Mg517       O525   2.165       .  S
Mg517       O518   2.292       .  S
Mg517       O519   2.284       .  S
Mg517       O546   2.271       .  S
O519        C523   1.267       .  A
O520       Mg527   2.293       .  S
O521        C540   1.273       .  A
O522        C542   1.278       .  A
O522       Mg538   2.315       .  S
O524       Mg538   2.154       .  S
O524        C535   1.237       .  S
O525       Mg544   2.145       .  S
O526       Mg538   2.299       .  S
Mg527       O543   2.242       .  S
O528       Mg544   2.294       .  S
H529        C534   1.081       .  S
O530       Mg538   2.129       .  S
O530        C533   1.236       .  S
H531        C533   1.081       .  S
H532        C535   1.081       .  S
O537       Mg544   2.294       .  S
C540       C2225   1.483       .  S
C540        O545   1.277       .  A
O541        C542   1.273       .  A
C542       C1113   1.485       .  S
C547        C548   1.401       .  A
C547        C552   1.405       .  A
C547       C1543   1.481       .  S
C548        C549   1.404   1_554  A
C548        H553   1.082       .  S
C549        C550   1.406       .  A
C549        C915   1.492       .  S
C550        C551   1.408       .  A
C550        H554   1.083       .  S
C551        C552   1.405   1_556  A
C551       C1147   1.483       .  S
C552        H555   1.084       .  S
C556        C557   1.411   1_554  A
C556        C561   1.405       .  A
C556       C1477   1.487       .  S
C557        C558   1.408       .  A
C557        H562   1.083       .  S
C558        C559   1.404       .  A
C558       C1015   1.485       .  S
C559        C560   1.400       .  A
C559        H563   1.083       .  S
C560        C561   1.402   1_556  A
C560        C893   1.487       .  S
C561        H564   1.083       .  S
C565        C566   1.405       .  A
C565        C570   1.408   1_554  A
C565       C1367   1.485       .  S
C566        C567   1.404       .  A
C566        H571   1.084       .  S
C567        C568   1.403   1_554  A
C567        C883   1.487       .  S
C568        C569   1.406       .  A
C568        H572   1.084       .  S
C569        C570   1.408       .  A
C569        C949   1.486       .  S
C570        H573   1.084       .  S
C574        C575   1.403       .  A
C574        C579   1.401       .  A
C574       C1455   1.476       .  S
C575        C576   1.402       .  A
C575        H580   1.084       .  S
C576        C577   1.402       .  A
C576       C1653   1.470       .  S
C577        C578   1.403       .  A
C577        H581   1.084       .  S
C578        C579   1.405       .  A
C578        C861   1.484       .  S
C579        H582   1.084       .  S
C583        C584   1.406       .  A
C583        C588   1.404       .  A
C583       C1663   1.481       .  S
C584        C585   1.406       .  A
C584        H589   1.084       .  S
C585        C586   1.404       .  A
C585       C1509   1.484       .  S
C586        C587   1.404       .  A
C586        H590   1.084       .  S
C587        C588   1.402       .  A
C587        C839   1.482       .  S
C588        H591   1.084       .  S
C592        C593   1.404       .  A
C592        C597   1.399       .  A
C592       C1235   1.474       .  S
C593        C594   1.409       .  A
C593        H598   1.084       .  S
C594        C595   1.407       .  A
C594       C1631   1.482       .  S
C595        C596   1.403       .  A
C595        H599   1.084       .  S
C596        C597   1.401       .  A
C596        C805   1.483       .  S
C597        H600   1.084       .  S
N601        C606   1.355       .  A
N601        C605   1.352   1_455  A
N601        H633   1.039       .  S
N602        C609   1.350       .  A
N602        C610   1.351   1_565  A
N603        C608   1.352       .  A
N603        C607   1.354       .  A
N603        H634   1.040       .  S
N604        C611   1.352       .  A
N604        C612   1.351       .  A
C605        C613   1.388   1_655  A
C605        C621   1.415       .  A
C606        C622   1.415       .  A
C606        C614   1.386       .  A
C607        C615   1.386       .  A
C607        C624   1.413   1_455  A
C608        C623   1.415       .  A
C608        C616   1.388       .  A
C609        C621   1.411       .  A
C609        C617   1.387       .  A
C610        C624   1.412       .  A
C610        C618   1.386   1_545  A
C611        C619   1.386       .  A
C611        C622   1.414       .  A
C612        C620   1.386       .  A
C612        C623   1.412   1_565  A
C613        C614   1.375       .  A
C613        H625   1.082   1_455  S
C614        H626   1.082       .  S
C615        C616   1.374       .  A
C615        H627   1.082   1_455  S
C616        H628   1.082       .  S
C617        C618   1.372       .  A
C617        H629   1.082       .  S
C618        H630   1.082   1_565  S
C619        C620   1.372       .  A
C619        H631   1.082       .  S
C620        H632   1.082   1_565  S
C621       C2247   1.481       .  S
C622       C2367   1.492       .  S
C623        C817   1.485       .  S
C624       C2301   1.487       .  S
N635        C640   1.353   1_565  A
N635        C639   1.354       .  A
N635        H667   1.038       .  S
N636        C643   1.354       .  A
N636        C644   1.353   1_554  A
N637        C642   1.355   1_565  A
N637        C641   1.353       .  A
N637        H668   1.038       .  S
N638        C645   1.349       .  A
N638        C646   1.349   1_554  A
C639        C647   1.389       .  A
C639        C655   1.417       .  A
C640        C656   1.415       .  A
C640        C648   1.386   1_545  A
C641        C649   1.389       .  A
C641        C658   1.418       .  A
C642        C657   1.416       .  A
C642        C650   1.385   1_545  A
C643        C655   1.417       .  A
C643        C651   1.386       .  A
C644        C658   1.417       .  A
C644        C652   1.387       .  A
C645        C653   1.386       .  A
C645        C656   1.409       .  A
C646        C654   1.386       .  A
C646        C657   1.410       .  A
C647        C648   1.373       .  A
C647        H659   1.080       .  S
C648        H660   1.082   1_565  S
C649        C650   1.374       .  A
C649        H661   1.081       .  S
C650        H662   1.082   1_565  S
C651        C652   1.370   1_554  A
C651        H663   1.082       .  S
C652        H664   1.082       .  S
C653        C654   1.371   1_554  A
C653        H665   1.082       .  S
C654        H666   1.082       .  S
C655       C2181   1.490       .  S
C656        C849   1.482       .  S
C657       C1983   1.488       .  S
C658       C1851   1.485       .  S
N669        C674   1.354   1_455  A
N669        C673   1.354       .  A
N669        H701   1.037       .  S
N670        C677   1.352   1_556  A
N670        C678   1.352       .  A
N671        C676   1.355   1_455  A
N671        C675   1.355       .  A
N671        H702   1.037       .  S
N672        C679   1.353   1_556  A
N672        C680   1.353       .  A
C673        C681   1.387       .  A
C673        C689   1.417       .  A
C674        C690   1.417       .  A
C674        C682   1.388   1_655  A
C675        C683   1.386       .  A
C675        C692   1.418       .  A
C676        C691   1.420       .  A
C676        C684   1.388   1_655  A
C677        C689   1.414       .  A
C677        C685   1.386       .  A
C678        C692   1.414       .  A
C678        C686   1.386       .  A
C679        C687   1.387       .  A
C679        C690   1.416       .  A
C680        C688   1.387       .  A
C680        C691   1.416       .  A
C681        C682   1.373       .  A
C681        H693   1.082       .  S
C682        H694   1.081   1_455  S
C683        C684   1.371       .  A
C683        H695   1.082       .  S
C684        H696   1.081   1_455  S
C685        C686   1.373   1_554  A
C685        H697   1.082       .  S
C686        H698   1.082       .  S
C687        C688   1.369   1_554  A
C687        H699   1.082       .  S
C688        H700   1.081       .  S
C689        C827   1.489       .  S
C690       C2103   1.486       .  S
C691       C2049   1.489       .  S
C692       C1917   1.491       .  S
N703        C708   1.352       .  A
N703        C707   1.354       .  A
N703        H735   1.039       .  S
N704        C711   1.351       .  A
N704        C712   1.349       .  A
N705        C710   1.354       .  A
N705        C709   1.352       .  A
N705        H736   1.038       .  S
N706        C713   1.350       .  A
N706        C714   1.352       .  A
C707        C715   1.387   1_554  A
C707        C723   1.415       .  A
C708        C724   1.413       .  A
C708        C716   1.387   1_554  A
C709        C717   1.386   1_554  A
C709        C726   1.414       .  A
C710        C725   1.417       .  A
C710        C718   1.388   1_554  A
C711        C723   1.411       .  A
C711        C719   1.386       .  A
C712        C726   1.410       .  A
C712        C720   1.387       .  A
C713        C721   1.386       .  A
C713        C724   1.412       .  A
C714        C722   1.387       .  A
C714        C725   1.414       .  A
C715        C716   1.374       .  A
C715        H727   1.082       .  S
C716        H728   1.082       .  S
C717        C718   1.374       .  A
C717        H729   1.082       .  S
C718        H730   1.081       .  S
C719        C720   1.373       .  A
C719        H731   1.082       .  S
C720        H732   1.082       .  S
C721        C722   1.371       .  A
C721        H733   1.082       .  S
C722        H734   1.082       .  S
C723        C871   1.487       .  S
C724        C905   1.480       .  S
C725       C1301   1.488       .  S
C726        C927   1.478       .  S
N737        C742   1.355       .  A
N737        C741   1.353       .  A
N737        H769   1.037       .  S
N738        C745   1.350       .  A
N738        C746   1.352       .  A
N739        C744   1.352       .  A
N739        C743   1.356       .  A
N739        H770   1.037       .  S
N740        C747   1.354       .  A
N740        C748   1.352       .  A
C741        C749   1.386       .  A
C741        C757   1.415       .  A
C742        C758   1.420       .  A
C742        C750   1.389       .  A
C743        C751   1.388       .  A
C743        C760   1.419       .  A
C744        C759   1.417       .  A
C744        C752   1.387       .  A
C745        C757   1.413       .  A
C745        C753   1.386       .  A
C746        C760   1.414       .  A
C746        C754   1.387       .  A
C747        C755   1.387       .  A
C747        C758   1.417       .  A
C748        C756   1.386       .  A
C748        C759   1.416       .  A
C749        C750   1.372       .  A
C749        H761   1.082       .  S
C750        H762   1.081       .  S
C751        C752   1.373       .  A
C751        H763   1.081       .  S
C752        H764   1.082       .  S
C753        C754   1.370       .  A
C753        H765   1.082       .  S
C754        H766   1.081       .  S
C755        C756   1.372       .  A
C755        H767   1.081       .  S
C756        H768   1.082       .  S
C757       C1345   1.481       .  S
C758       C1091   1.492       .  S
C759       C1059   1.485       .  S
C760       C1741   1.490       .  S
N771        C776   1.353       .  A
N771        C775   1.351       .  A
N771        H803   1.038       .  S
N772        C779   1.354       .  A
N772        C780   1.353       .  A
N773        C778   1.355       .  A
N773        C777   1.355       .  A
N773        H804   1.038       .  S
N774        C781   1.351       .  A
N774        C782   1.350       .  A
C775        C783   1.387       .  A
C775        C791   1.413       .  A
C776        C792   1.414       .  A
C776        C784   1.387       .  A
C777        C785   1.388       .  A
C777        C794   1.419       .  A
C778        C793   1.418       .  A
C778        C786   1.386       .  A
C779        C791   1.415       .  A
C779        C787   1.385       .  A
C780        C794   1.417       .  A
C780        C788   1.387       .  A
C781        C789   1.386       .  A
C781        C792   1.412       .  A
C782        C790   1.387       .  A
C782        C793   1.413       .  A
C783        C784   1.373       .  A
C783        H795   1.082       .  S
C784        H796   1.082       .  S
C785        C786   1.374       .  A
C785        H797   1.081       .  S
C786        H798   1.082       .  S
C787        C788   1.372       .  A
C787        H799   1.082       .  S
C788        H800   1.082       .  S
C789        C790   1.371       .  A
C789        H801   1.082   1_565  S
C790        H802   1.082   1_565  S
C791       C1411   1.486       .  S
C792        C971   1.483       .  S
C793       C1179   1.489       .  S
C794       C1575   1.489       .  S
C805        C806   1.400       .  A
C805        C810   1.402       .  A
C806        C807   1.392       .  A
C806        H819   1.083       .  S
C807        C808   1.413       .  A
C807        H820   1.077       .  S
C808        C814   1.428       .  A
C808        C809   1.423       .  A
C809        C811   1.400       .  A
C809        C810   1.406       .  A
C810        H821   1.084       .  S
C811        C812   1.391       .  A
C811        H822   1.084       .  S
C812        C813   1.400       .  A
C812        H823   1.084       .  S
C813        C814   1.422       .  A
C813        C818   1.404       .  A
C814        C815   1.416       .  A
C815        C816   1.393       .  A
C815        H824   1.077       .  S
C816        C817   1.397       .  A
C816        H825   1.084       .  S
C817        C818   1.400       .  A
C818        H826   1.085       .  S
C827        C828   1.398       .  A
C827        C832   1.401       .  A
C828        C829   1.394       .  A
C828        H841   1.084       .  S
C829        C830   1.415       .  A
C829        H842   1.077       .  S
C830        C836   1.429       .  A
C830        C831   1.423       .  A
C831        C833   1.400       .  A
C831        C832   1.406       .  A
C832        H843   1.085       .  S
C833        C834   1.391       .  A
C833        H844   1.084       .  S
C834        C835   1.400       .  A
C834        H845   1.084       .  S
C835        C836   1.423       .  A
C835        C840   1.406       .  A
C836        C837   1.415       .  A
C837        C838   1.394       .  A
C837        H846   1.077       .  S
C838        C839   1.399       .  A
C838        H847   1.083       .  S
C839        C840   1.402       .  A
C840        H848   1.084       .  S
C849        C850   1.398       .  A
C849        C854   1.397       .  A
C850        C851   1.395       .  A
C850        H863   1.084       .  S
C851        C852   1.415       .  A
C851        H864   1.077       .  S
C852        C858   1.428       .  A
C852        C853   1.424       .  A
C853        C855   1.397       .  A
C853        C854   1.401       .  A
C854        H865   1.085       .  S
C855        C856   1.387       .  A
C855        H866   1.084       .  S
C856        C857   1.399       .  A
C856        H867   1.084       .  S
C857        C858   1.421       .  A
C857        C862   1.400       .  A
C858        C859   1.415       .  A
C859        C860   1.396       .  A
C859        H868   1.077       .  S
C860        C861   1.401       .  A
C860        H869   1.083       .  S
C861        C862   1.401       .  A
C862        H870   1.084       .  S
C871        C872   1.398       .  A
C871        C876   1.400   1_554  A
C872        C873   1.396       .  A
C872        H885   1.083       .  S
C873        C874   1.416       .  A
C873        H886   1.077       .  S
C874        C880   1.430       .  A
C874        C875   1.423   1_554  A
C875        C877   1.399       .  A
C875        C876   1.405       .  A
C876        H887   1.085       .  S
C877        C878   1.390       .  A
C877        H888   1.084       .  S
C878        C879   1.400       .  A
C878        H889   1.084       .  S
C879        C880   1.422   1_556  A
C879        C884   1.406       .  A
C880        C881   1.415       .  A
C881        C882   1.396       .  A
C881        H890   1.077       .  S
C882        C883   1.401       .  A
C882        H891   1.083       .  S
C883        C884   1.403   1_554  A
C884        H892   1.084       .  S
C893        C894   1.402       .  A
C893        C898   1.403   1_556  A
C894        C895   1.395       .  A
C894        H907   1.083       .  S
C895        C896   1.414       .  A
C895        H908   1.077       .  S
C896        C902   1.427       .  A
C896        C897   1.421   1_556  A
C897        C899   1.399       .  A
C897        C898   1.402       .  A
C898        H909   1.084       .  S
C899        C900   1.388       .  A
C899        H910   1.084       .  S
C900        C901   1.398       .  A
C900        H911   1.084       .  S
C901        C902   1.423   1_554  A
C901        C906   1.402       .  A
C902        C903   1.415       .  A
C903        C904   1.394       .  A
C903        H912   1.077       .  S
C904        C905   1.397   1_556  A
C904        H913   1.084       .  S
C905        C906   1.397       .  A
C906        H914   1.085       .  S
C915        C916   1.403       .  A
C915        C920   1.404   1_556  A
C916        C917   1.397       .  A
C916        H929   1.082       .  S
C917        C918   1.415       .  A
C917        H930   1.077       .  S
C918        C924   1.429   1_556  A
C918        C919   1.420   1_556  A
C919        C921   1.399       .  A
C919        C920   1.401       .  A
C920        H931   1.083       .  S
C921        C922   1.388       .  A
C921        H932   1.084       .  S
C922        C923   1.398       .  A
C922        H933   1.084       .  S
C923        C924   1.424       .  A
C923        C928   1.402       .  A
C924        C925   1.415   1_554  A
C925        C926   1.395       .  A
C925        H934   1.077       .  S
C926        C927   1.396   1_556  A
C926        H935   1.084       .  S
C927        C928   1.395       .  A
C928        H936   1.085       .  S
C937        C938   1.401       .  A
C937        C942   1.404       .  A
C938        C939   1.397       .  A
C938        H951   1.083       .  S
C939        C940   1.415       .  A
C939        H952   1.077       .  S
C940        C946   1.431       .  A
C940        C941   1.421       .  A
C941        C943   1.401       .  A
C941        C942   1.407       .  A
C942        H953   1.084       .  S
C943        C944   1.392       .  A
C943        H954   1.084       .  S
C944        C945   1.400       .  A
C944        H955   1.084       .  S
C945        C946   1.424       .  A
C945        C950   1.410       .  A
C946        C947   1.413       .  A
C947        C948   1.395       .  A
C947        H956   1.077       .  S
C948        C949   1.400       .  A
C948        H957   1.084       .  S
C949        C950   1.402       .  A
C950        H958   1.084       .  S
C959        C960   1.401       .  A
C959        C964   1.402       .  A
C960        C961   1.394       .  A
C960        H973   1.083       .  S
C961        C962   1.414       .  A
C961        H974   1.077       .  S
C962        C968   1.428       .  A
C962        C963   1.422       .  A
C963        C965   1.399   1_565  A
C963        C964   1.404       .  A
C964        H975   1.084   1_565  S
C965        C966   1.390       .  A
C965        H976   1.084       .  S
C966        C967   1.399   1_545  A
C966        H977   1.084       .  S
C967        C968   1.423       .  A
C967        C972   1.404       .  A
C968        C969   1.415       .  A
C969        C970   1.394       .  A
C969        H978   1.077       .  S
C970        C971   1.397       .  A
C970        H979   1.084       .  S
C971        C972   1.399       .  A
C972        H980   1.085   1_565  S
C981        C982   1.399       .  A
C981        C986   1.398       .  A
C982        C983   1.397       .  A
C982        H995   1.083       .  S
C983        C984   1.416       .  A
C983        H996   1.077       .  S
C984        C990   1.427       .  A
C984        C985   1.422       .  A
C985        C987   1.398       .  A
C985        C986   1.398       .  A
C986        H997   1.085       .  S
C987        C988   1.385       .  A
C987        H998   1.084       .  S
C988        C989   1.397       .  A
C988        H999   1.084       .  S
C989        C990   1.423       .  A
C989        C994   1.398       .  A
C990        C991   1.415       .  A
C991        C992   1.395       .  A
C991       H1000   1.077       .  S
C992        C993   1.400       .  A
C992       H1001   1.083       .  S
C993        C994   1.397       .  A
C994       H1002   1.085       .  S
C1003      C1004   1.398       .  A
C1003      C1008   1.405       .  A
C1004      C1005   1.393       .  A
C1004      H1017   1.083       .  S
C1005      C1006   1.415       .  A
C1005      H1018   1.076       .  S
C1006      C1012   1.429       .  A
C1006      C1007   1.421       .  A
C1007      C1009   1.401       .  A
C1007      C1008   1.408       .  A
C1008      H1019   1.084       .  S
C1009      C1010   1.393       .  A
C1009      H1020   1.084       .  S
C1010      C1011   1.401       .  A
C1010      H1021   1.084       .  S
C1011      C1012   1.423       .  A
C1011      C1016   1.411       .  A
C1012      C1013   1.412       .  A
C1013      C1014   1.391       .  A
C1013      H1022   1.077       .  S
C1014      C1015   1.400       .  A
C1014      H1023   1.084       .  S
C1015      C1016   1.403       .  A
C1016      H1024   1.084       .  S
C1025      C1026   1.398       .  A
C1025      C1030   1.398       .  A
C1026      C1027   1.396       .  A
C1026      H1039   1.084       .  S
C1027      C1028   1.416       .  A
C1027      H1040   1.077       .  S
C1028      C1034   1.429       .  A
C1028      C1029   1.423       .  A
C1029      C1031   1.399       .  A
C1029      C1030   1.403       .  A
C1030      H1041   1.085       .  S
C1031      C1032   1.389       .  A
C1031      H1042   1.084       .  S
C1032      C1033   1.400       .  A
C1032      H1043   1.084       .  S
C1033      C1034   1.422       .  A
C1033      C1038   1.404       .  A
C1034      C1035   1.414       .  A
C1035      C1036   1.397       .  A
C1035      H1044   1.077       .  S
C1036      C1037   1.402       .  A
C1036      H1045   1.083       .  S
C1037      C1038   1.403       .  A
C1038      H1046   1.084       .  S
C1047      C1048   1.402       .  A
C1047      C1052   1.404       .  A
C1048      C1049   1.395       .  A
C1048      H1061   1.083       .  S
C1049      C1050   1.414       .  A
C1049      H1062   1.077       .  S
C1050      C1056   1.428       .  A
C1050      C1051   1.421       .  A
C1051      C1053   1.400   1_455  A
C1051      C1052   1.404       .  A
C1052      H1063   1.084   1_455  S
C1053      C1054   1.389       .  A
C1053      H1064   1.084       .  S
C1054      C1055   1.399   1_655  A
C1054      H1065   1.084       .  S
C1055      C1056   1.423       .  A
C1055      C1060   1.404       .  A
C1056      C1057   1.415       .  A
C1057      C1058   1.394       .  A
C1057      H1066   1.077       .  S
C1058      C1059   1.398       .  A
C1058      H1067   1.084       .  S
C1059      C1060   1.399       .  A
C1060      H1068   1.085   1_455  S
C1069      C1070   1.402       .  A
C1069      C1074   1.405       .  A
C1070      C1071   1.394       .  A
C1070      H1083   1.083       .  S
C1071      C1072   1.413       .  A
C1071      H1084   1.077       .  S
C1072      C1078   1.430       .  A
C1072      C1073   1.422       .  A
C1073      C1075   1.401       .  A
C1073      C1074   1.409       .  A
C1074      H1085   1.084       .  S
C1075      C1076   1.392       .  A
C1075      H1086   1.084       .  S
C1076      C1077   1.400       .  A
C1076      H1087   1.084       .  S
C1077      C1078   1.423       .  A
C1077      C1082   1.408       .  A
C1078      C1079   1.415       .  A
C1079      C1080   1.394       .  A
C1079      H1088   1.077       .  S
C1080      C1081   1.397       .  A
C1080      H1089   1.084       .  S
C1081      C1082   1.400       .  A
C1082      H1090   1.085       .  S
C1091      C1092   1.400   1_455  A
C1091      C1096   1.401       .  A
C1092      C1093   1.398       .  A
C1092      H1105   1.083       .  S
C1093      C1094   1.415   1_655  A
C1093      H1106   1.078       .  S
C1094      C1100   1.430       .  A
C1094      C1095   1.422       .  A
C1095      C1097   1.399       .  A
C1095      C1096   1.406       .  A
C1096      H1107   1.085       .  S
C1097      C1098   1.391       .  A
C1097      H1108   1.084       .  S
C1098      C1099   1.400       .  A
C1098      H1109   1.084       .  S
C1099      C1100   1.421       .  A
C1099      C1104   1.406       .  A
C1100      C1101   1.413   1_455  A
C1101      C1102   1.398       .  A
C1101      H1110   1.078       .  S
C1102      C1103   1.405   1_655  A
C1102      H1111   1.082       .  S
C1103      C1104   1.407       .  A
C1104      H1112   1.083       .  S
C1113      C1114   1.401       .  A
C1113      C1118   1.404       .  A
C1114      C1115   1.396       .  A
C1114      H1127   1.083       .  S
C1115      C1116   1.415       .  A
C1115      H1128   1.077       .  S
C1116      C1122   1.430       .  A
C1116      C1117   1.422       .  A
C1117      C1119   1.400       .  A
C1117      C1118   1.405       .  A
C1118      H1129   1.084       .  S
C1119      C1120   1.390       .  A
C1119      H1130   1.084       .  S
C1120      C1121   1.399       .  A
C1120      H1131   1.084       .  S
C1121      C1122   1.424       .  A
C1121      C1126   1.406       .  A
C1122      C1123   1.416       .  A
C1123      C1124   1.396       .  A
C1123      H1132   1.077       .  S
C1124      C1125   1.397       .  A
C1124      H1133   1.084       .  S
C1125      C1126   1.399       .  A
C1126      H1134   1.085       .  S
C1135      C1136   1.403       .  A
C1135      C1140   1.401       .  A
C1136      C1137   1.400       .  A
C1136      H1149   1.083       .  S
C1137      C1138   1.415       .  A
C1137      H1150   1.078       .  S
C1138      C1144   1.432       .  A
C1138      C1139   1.423       .  A
C1139      C1141   1.399       .  A
C1139      C1140   1.404       .  A
C1140      H1151   1.084       .  S
C1141      C1142   1.388       .  A
C1141      H1152   1.084       .  S
C1142      C1143   1.398       .  A
C1142      H1153   1.084       .  S
C1143      C1144   1.422       .  A
C1143      C1148   1.403       .  A
C1144      C1145   1.416       .  A
C1145      C1146   1.400       .  A
C1145      H1154   1.078       .  S
C1146      C1147   1.401       .  A
C1146      H1155   1.083       .  S
C1147      C1148   1.399       .  A
C1148      H1156   1.085       .  S
C1157      C1158   1.399       .  A
C1157      C1162   1.401       .  A
C1158      C1159   1.397       .  A
C1158      H1171   1.084       .  S
C1159      C1160   1.416       .  A
C1159      H1172   1.077       .  S
C1160      C1166   1.431       .  A
C1160      C1161   1.423       .  A
C1161      C1163   1.400       .  A
C1161      C1162   1.407       .  A
C1162      H1173   1.085       .  S
C1163      C1164   1.391       .  A
C1163      H1174   1.084       .  S
C1164      C1165   1.400       .  A
C1164      H1175   1.084       .  S
C1165      C1166   1.423       .  A
C1165      C1170   1.408       .  A
C1166      C1167   1.414       .  A
C1167      C1168   1.396       .  A
C1167      H1176   1.077       .  S
C1168      C1169   1.402       .  A
C1168      H1177   1.083       .  S
C1169      C1170   1.403       .  A
C1170      H1178   1.084       .  S
C1179      C1180   1.398       .  A
C1179      C1184   1.401   1_565  A
C1180      C1181   1.394       .  A
C1180      H1193   1.084       .  S
C1181      C1182   1.415       .  A
C1181      H1194   1.077       .  S
C1182      C1188   1.429       .  A
C1182      C1183   1.423   1_565  A
C1183      C1185   1.400       .  A
C1183      C1184   1.407       .  A
C1184      H1195   1.084       .  S
C1185      C1186   1.392       .  A
C1185      H1196   1.084       .  S
C1186      C1187   1.401       .  A
C1186      H1197   1.084       .  S
C1187      C1188   1.422   1_545  A
C1187      C1192   1.407   1_545  A
C1188      C1189   1.414       .  A
C1189      C1190   1.394       .  A
C1189      H1198   1.077       .  S
C1190      C1191   1.400       .  A
C1190      H1199   1.083       .  S
C1191      C1192   1.404       .  A
C1192      H1200   1.084   1_565  S
C1201      C1202   1.399       .  A
C1201      C1206   1.404       .  A
C1202      C1203   1.400       .  A
C1202      H1215   1.083       .  S
C1203      C1204   1.418       .  A
C1203      H1216   1.077       .  S
C1204      C1210   1.434       .  A
C1204      C1205   1.421       .  A
C1205      C1207   1.401       .  A
C1205      C1206   1.407       .  A
C1206      H1217   1.085       .  S
C1207      C1208   1.392       .  A
C1207      H1218   1.084       .  S
C1208      C1209   1.400       .  A
C1208      H1219   1.084       .  S
C1209      C1210   1.424       .  A
C1209      C1214   1.410       .  A
C1210      C1211   1.413       .  A
C1211      C1212   1.397       .  A
C1211      H1220   1.077       .  S
C1212      C1213   1.403       .  A
C1212      H1221   1.083       .  S
C1213      C1214   1.404       .  A
C1214      H1222   1.084       .  S
C1223      C1224   1.401       .  A
C1223      C1228   1.405       .  A
C1224      C1225   1.396       .  A
C1224      H1237   1.083       .  S
C1225      C1226   1.415       .  A
C1225      H1238   1.077       .  S
C1226      C1232   1.431       .  A
C1226      C1227   1.422       .  A
C1227      C1229   1.400       .  A
C1227      C1228   1.407       .  A
C1228      H1239   1.084       .  S
C1229      C1230   1.391       .  A
C1229      H1240   1.084       .  S
C1230      C1231   1.400       .  A
C1230      H1241   1.084       .  S
C1231      C1232   1.424       .  A
C1231      C1236   1.407       .  A
C1232      C1233   1.416       .  A
C1233      C1234   1.395       .  A
C1233      H1242   1.077       .  S
C1234      C1235   1.397       .  A
C1234      H1243   1.084       .  S
C1235      C1236   1.399       .  A
C1236      H1244   1.085       .  S
C1245      C1246   1.397       .  A
C1245      C1250   1.398       .  A
C1246      C1247   1.394       .  A
C1246      H1259   1.084       .  S
C1247      C1248   1.415       .  A
C1247      H1260   1.077       .  S
C1248      C1254   1.429       .  A
C1248      C1249   1.423       .  A
C1249      C1251   1.399       .  A
C1249      C1250   1.406       .  A
C1250      H1261   1.085       .  S
C1251      C1252   1.391       .  A
C1251      H1262   1.084       .  S
C1252      C1253   1.400       .  A
C1252      H1263   1.084       .  S
C1253      C1254   1.423       .  A
C1253      C1258   1.407       .  A
C1254      C1255   1.413       .  A
C1255      C1256   1.393       .  A
C1255      H1264   1.077       .  S
C1256      C1257   1.402       .  A
C1256      H1265   1.083       .  S
C1257      C1258   1.403       .  A
C1258      H1266   1.084       .  S
C1267      C1268   1.399       .  A
C1267      C1272   1.400       .  A
C1268      C1269   1.396       .  A
C1268      H1281   1.084       .  S
C1269      C1270   1.415       .  A
C1269      H1282   1.077       .  S
C1270      C1276   1.432       .  A
C1270      C1271   1.424       .  A
C1271      C1273   1.400       .  A
C1271      C1272   1.410       .  A
C1272      H1283   1.084       .  S
C1273      C1274   1.392       .  A
C1273      H1284   1.084       .  S
C1274      C1275   1.400       .  A
C1274      H1285   1.084       .  S
C1275      C1276   1.422       .  A
C1275      C1280   1.409       .  A
C1276      C1277   1.414       .  A
C1277      C1278   1.396       .  A
C1277      H1286   1.077       .  S
C1278      C1279   1.402       .  A
C1278      H1287   1.083       .  S
C1279      C1280   1.405       .  A
C1280      H1288   1.084       .  S
C1289      C1290   1.406   1_556  A
C1289      C1294   1.407       .  A
C1290      C1291   1.395       .  A
C1290      H1303   1.082       .  S
C1291      C1292   1.411       .  A
C1291      H1304   1.078       .  S
C1292      C1298   1.428       .  A
C1292      C1293   1.420   1_554  A
C1293      C1295   1.400       .  A
C1293      C1294   1.406       .  A
C1294      H1305   1.082       .  S
C1295      C1296   1.391       .  A
C1295      H1306   1.084       .  S
C1296      C1297   1.400       .  A
C1296      H1307   1.084       .  S
C1297      C1298   1.422   1_556  A
C1297      C1302   1.405       .  A
C1298      C1299   1.415       .  A
C1299      C1300   1.396       .  A
C1299      H1308   1.078       .  S
C1300      C1301   1.399       .  A
C1300      H1309   1.084       .  S
C1301      C1302   1.400   1_554  A
C1302      H1310   1.085       .  S
C1311      C1312   1.401       .  A
C1311      C1316   1.403       .  A
C1312      C1313   1.395       .  A
C1312      H1325   1.083       .  S
C1313      C1314   1.413       .  A
C1313      H1326   1.077       .  S
C1314      C1320   1.429       .  A
C1314      C1315   1.423       .  A
C1315      C1317   1.400       .  A
C1315      C1316   1.407       .  A
C1316      H1327   1.084       .  S
C1317      C1318   1.391       .  A
C1317      H1328   1.084       .  S
C1318      C1319   1.400       .  A
C1318      H1329   1.084       .  S
C1319      C1320   1.421       .  A
C1319      C1324   1.405       .  A
C1320      C1321   1.417       .  A
C1321      C1322   1.398       .  A
C1321      H1330   1.077       .  S
C1322      C1323   1.397       .  A
C1322      H1331   1.083       .  S
C1323      C1324   1.401       .  A
C1324      H1332   1.085       .  S
C1333      C1334   1.402       .  A
C1333      C1338   1.404       .  A
C1334      C1335   1.395       .  A
C1334      H1347   1.083       .  S
C1335      C1336   1.414       .  A
C1335      H1348   1.077       .  S
C1336      C1342   1.428       .  A
C1336      C1337   1.421       .  A
C1337      C1339   1.400   1_455  A
C1337      C1338   1.403       .  A
C1338      H1349   1.084   1_455  S
C1339      C1340   1.389       .  A
C1339      H1350   1.084       .  S
C1340      C1341   1.399   1_655  A
C1340      H1351   1.084       .  S
C1341      C1342   1.423       .  A
C1341      C1346   1.402       .  A
C1342      C1343   1.416       .  A
C1343      C1344   1.394       .  A
C1343      H1352   1.077       .  S
C1344      C1345   1.396       .  A
C1344      H1353   1.084       .  S
C1345      C1346   1.398       .  A
C1346      H1354   1.085   1_455  S
C1355      C1356   1.403       .  A
C1355      C1360   1.404       .  A
C1356      C1357   1.399       .  A
C1356      H1369   1.083       .  S
C1357      C1358   1.415       .  A
C1357      H1370   1.078       .  S
C1358      C1364   1.433       .  A
C1358      C1359   1.423       .  A
C1359      C1361   1.400       .  A
C1359      C1360   1.408       .  A
C1360      H1371   1.084       .  S
C1361      C1362   1.390       .  A
C1361      H1372   1.084       .  S
C1362      C1363   1.400       .  A
C1362      H1373   1.084       .  S
C1363      C1364   1.422       .  A
C1363      C1368   1.405       .  A
C1364      C1365   1.417       .  A
C1365      C1366   1.401       .  A
C1365      H1374   1.078       .  S
C1366      C1367   1.399       .  A
C1366      H1375   1.083       .  S
C1367      C1368   1.402       .  A
C1368      H1376   1.085       .  S
C1377      C1378   1.401       .  A
C1377      C1382   1.403       .  A
C1378      C1379   1.396       .  A
C1378      H1391   1.083       .  S
C1379      C1380   1.416       .  A
C1379      H1392   1.077       .  S
C1380      C1386   1.431       .  A
C1380      C1381   1.422       .  A
C1381      C1383   1.400       .  A
C1381      C1382   1.407       .  A
C1382      H1393   1.084       .  S
C1383      C1384   1.391       .  A
C1383      H1394   1.084       .  S
C1384      C1385   1.399       .  A
C1384      H1395   1.084       .  S
C1385      C1386   1.424       .  A
C1385      C1390   1.409       .  A
C1386      C1387   1.414       .  A
C1387      C1388   1.394       .  A
C1387      H1396   1.077       .  S
C1388      C1389   1.400       .  A
C1388      H1397   1.084       .  S
C1389      C1390   1.400       .  A
C1390      H1398   1.084       .  S
C1399      C1400   1.401       .  A
C1399      C1404   1.405       .  A
C1400      C1401   1.394       .  A
C1400      H1413   1.083   1_565  S
C1401      C1402   1.414       .  A
C1401      H1414   1.077   1_565  S
C1402      C1408   1.428       .  A
C1402      C1403   1.421       .  A
C1403      C1405   1.400       .  A
C1403      C1404   1.405       .  A
C1404      H1415   1.084       .  S
C1405      C1406   1.391       .  A
C1405      H1416   1.084       .  S
C1406      C1407   1.400       .  A
C1406      H1417   1.084       .  S
C1407      C1408   1.424       .  A
C1407      C1412   1.407       .  A
C1408      C1409   1.414       .  A
C1409      C1410   1.393       .  A
C1409      H1418   1.077   1_565  S
C1410      C1411   1.397       .  A
C1410      H1419   1.084   1_565  S
C1411      C1412   1.400       .  A
C1412      H1420   1.084       .  S
C1421      C1422   1.399       .  A
C1421      C1426   1.402       .  A
C1422      C1423   1.400       .  A
C1422      H1435   1.083       .  S
C1423      C1424   1.418       .  A
C1423      H1436   1.078       .  S
C1424      C1430   1.431       .  A
C1424      C1425   1.421       .  A
C1425      C1427   1.399       .  A
C1425      C1426   1.402       .  A
C1426      H1437   1.085       .  S
C1427      C1428   1.389       .  A
C1427      H1438   1.084       .  S
C1428      C1429   1.399       .  A
C1428      H1439   1.084       .  S
C1429      C1430   1.424       .  A
C1429      C1434   1.406       .  A
C1430      C1431   1.413       .  A
C1431      C1432   1.396       .  A
C1431      H1440   1.078       .  S
C1432      C1433   1.403       .  A
C1432      H1441   1.083       .  S
C1433      C1434   1.402       .  A
C1434      H1442   1.084       .  S
C1443      C1444   1.402       .  A
C1443      C1448   1.402       .  A
C1444      C1445   1.398       .  A
C1444      H1457   1.083       .  S
C1445      C1446   1.415       .  A
C1445      H1458   1.077       .  S
C1446      C1452   1.429       .  A
C1446      C1447   1.422       .  A
C1447      C1449   1.399       .  A
C1447      C1448   1.403       .  A
C1448      H1459   1.084       .  S
C1449      C1450   1.388       .  A
C1449      H1460   1.084       .  S
C1450      C1451   1.398       .  A
C1450      H1461   1.084       .  S
C1451      C1452   1.424       .  A
C1451      C1456   1.403       .  A
C1452      C1453   1.415       .  A
C1453      C1454   1.396       .  A
C1453      H1462   1.077       .  S
C1454      C1455   1.399       .  A
C1454      H1463   1.084       .  S
C1455      C1456   1.397       .  A
C1456      H1464   1.085       .  S
C1465      C1466   1.401       .  A
C1465      C1470   1.402       .  A
C1466      C1467   1.397       .  A
C1466      H1479   1.083       .  S
C1467      C1468   1.414       .  A
C1467      H1480   1.077       .  S
C1468      C1474   1.431       .  A
C1468      C1469   1.423       .  A
C1469      C1471   1.399       .  A
C1469      C1470   1.407       .  A
C1470      H1481   1.084       .  S
C1471      C1472   1.390       .  A
C1471      H1482   1.084       .  S
C1472      C1473   1.400       .  A
C1472      H1483   1.084       .  S
C1473      C1474   1.421       .  A
C1473      C1478   1.404       .  A
C1474      C1475   1.416       .  A
C1475      C1476   1.399       .  A
C1475      H1484   1.077       .  S
C1476      C1477   1.400       .  A
C1476      H1485   1.083       .  S
C1477      C1478   1.404       .  A
C1478      H1486   1.084       .  S
C1487      C1488   1.400       .  A
C1487      C1492   1.404       .  A
C1488      C1489   1.397       .  A
C1488      H1501   1.083       .  S
C1489      C1490   1.416       .  A
C1489      H1502   1.077       .  S
C1490      C1496   1.431       .  A
C1490      C1491   1.421       .  A
C1491      C1493   1.401       .  A
C1491      C1492   1.407       .  A
C1492      H1503   1.084       .  S
C1493      C1494   1.392       .  A
C1493      H1504   1.084       .  S
C1494      C1495   1.400       .  A
C1494      H1505   1.084       .  S
C1495      C1496   1.425       .  A
C1495      C1500   1.411       .  A
C1496      C1497   1.413       .  A
C1497      C1498   1.394       .  A
C1497      H1506   1.077       .  S
C1498      C1499   1.401       .  A
C1498      H1507   1.084       .  S
C1499      C1500   1.401       .  A
C1500      H1508   1.084       .  S
C1509      C1510   1.399       .  A
C1509      C1514   1.402       .  A
C1510      C1511   1.397       .  A
C1510      H1523   1.083       .  S
C1511      C1512   1.415       .  A
C1511      H1524   1.077       .  S
C1512      C1518   1.431       .  A
C1512      C1513   1.422       .  A
C1513      C1515   1.400       .  A
C1513      C1514   1.407       .  A
C1514      H1525   1.085       .  S
C1515      C1516   1.391       .  A
C1515      H1526   1.084       .  S
C1516      C1517   1.400       .  A
C1516      H1527   1.084       .  S
C1517      C1518   1.422       .  A
C1517      C1522   1.408       .  A
C1518      C1519   1.415       .  A
C1519      C1520   1.397       .  A
C1519      H1528   1.077       .  S
C1520      C1521   1.401       .  A
C1520      H1529   1.083       .  S
C1521      C1522   1.404       .  A
C1522      H1530   1.084       .  S
C1531      C1532   1.401       .  A
C1531      C1536   1.401       .  A
C1532      C1533   1.394       .  A
C1532      H1545   1.083       .  S
C1533      C1534   1.413       .  A
C1533      H1546   1.077       .  S
C1534      C1540   1.429       .  A
C1534      C1535   1.423       .  A
C1535      C1537   1.399       .  A
C1535      C1536   1.406       .  A
C1536      H1547   1.085       .  S
C1537      C1538   1.389       .  A
C1537      H1548   1.084       .  S
C1538      C1539   1.399       .  A
C1538      H1549   1.084       .  S
C1539      C1540   1.422       .  A
C1539      C1544   1.403       .  A
C1540      C1541   1.416       .  A
C1541      C1542   1.396       .  A
C1541      H1550   1.077       .  S
C1542      C1543   1.398       .  A
C1542      H1551   1.083       .  S
C1543      C1544   1.402       .  A
C1544      H1552   1.085       .  S
C1553      C1554   1.403       .  A
C1553      C1558   1.404       .  A
C1554      C1555   1.398       .  A
C1554      H1567   1.083       .  S
C1555      C1556   1.415       .  A
C1555      H1568   1.077       .  S
C1556      C1562   1.432       .  A
C1556      C1557   1.422       .  A
C1557      C1559   1.400       .  A
C1557      C1558   1.406       .  A
C1558      H1569   1.084       .  S
C1559      C1560   1.390       .  A
C1559      H1570   1.084       .  S
C1560      C1561   1.399       .  A
C1560      H1571   1.084       .  S
C1561      C1562   1.424       .  A
C1561      C1566   1.407       .  A
C1562      C1563   1.416       .  A
C1563      C1564   1.397       .  A
C1563      H1572   1.077       .  S
C1564      C1565   1.398       .  A
C1564      H1573   1.084       .  S
C1565      C1566   1.398       .  A
C1566      H1574   1.085       .  S
C1575      C1576   1.399       .  A
C1575      C1580   1.400       .  A
C1576      C1577   1.398       .  A
C1576      H1589   1.083       .  S
C1577      C1578   1.415       .  A
C1577      H1590   1.078       .  S
C1578      C1584   1.430       .  A
C1578      C1579   1.423       .  A
C1579      C1581   1.399   1_565  A
C1579      C1580   1.405       .  A
C1580      H1591   1.085   1_565  S
C1581      C1582   1.390       .  A
C1581      H1592   1.084       .  S
C1582      C1583   1.400   1_545  A
C1582      H1593   1.084       .  S
C1583      C1584   1.419       .  A
C1583      C1588   1.405       .  A
C1584      C1585   1.413       .  A
C1585      C1586   1.399       .  A
C1585      H1594   1.078       .  S
C1586      C1587   1.407       .  A
C1586      H1595   1.081       .  S
C1587      C1588   1.409       .  A
C1588      H1596   1.082   1_565  S
C1597      C1598   1.405       .  A
C1597      C1602   1.404       .  A
C1598      C1599   1.401       .  A
C1598      H1611   1.083       .  S
C1599      C1600   1.415       .  A
C1599      H1612   1.078       .  S
C1600      C1606   1.437       .  A
C1600      C1601   1.424       .  A
C1601      C1603   1.400       .  A
C1601      C1602   1.410       .  A
C1602      H1613   1.084       .  S
C1603      C1604   1.391       .  A
C1603      H1614   1.084       .  S
C1604      C1605   1.400       .  A
C1604      H1615   1.084       .  S
C1605      C1606   1.422       .  A
C1605      C1610   1.408       .  A
C1606      C1607   1.418       .  A
C1607      C1608   1.403       .  A
C1607      H1616   1.078       .  S
C1608      C1609   1.400       .  A
C1608      H1617   1.083       .  S
C1609      C1610   1.402       .  A
C1610      H1618   1.085       .  S
C1619      C1620   1.403       .  A
C1619      C1624   1.400       .  A
C1620      C1621   1.399       .  A
C1620      H1633   1.083       .  S
C1621      C1622   1.415       .  A
C1621      H1634   1.078       .  S
C1622      C1628   1.432       .  A
C1622      C1623   1.423       .  A
C1623      C1625   1.398       .  A
C1623      C1624   1.404       .  A
C1624      H1635   1.084       .  S
C1625      C1626   1.388       .  A
C1625      H1636   1.084       .  S
C1626      C1627   1.399       .  A
C1626      H1637   1.084       .  S
C1627      C1628   1.422       .  A
C1627      C1632   1.403       .  A
C1628      C1629   1.417       .  A
C1629      C1630   1.400       .  A
C1629      H1638   1.077       .  S
C1630      C1631   1.400       .  A
C1630      H1639   1.083       .  S
C1631      C1632   1.400       .  A
C1632      H1640   1.085       .  S
C1641      C1642   1.402       .  A
C1641      C1646   1.402       .  A
C1642      C1643   1.394       .  A
C1642      H1655   1.083       .  S
C1643      C1644   1.413       .  A
C1643      H1656   1.077       .  S
C1644      C1650   1.428       .  A
C1644      C1645   1.423       .  A
C1645      C1647   1.399       .  A
C1645      C1646   1.405       .  A
C1646      H1657   1.084       .  S
C1647      C1648   1.389       .  A
C1647      H1658   1.084       .  S
C1648      C1649   1.399       .  A
C1648      H1659   1.084       .  S
C1649      C1650   1.423       .  A
C1649      C1654   1.403       .  A
C1650      C1651   1.416       .  A
C1651      C1652   1.395       .  A
C1651      H1660   1.077       .  S
C1652      C1653   1.396       .  A
C1652      H1661   1.084       .  S
C1653      C1654   1.397       .  A
C1654      H1662   1.085       .  S
C1663      C1664   1.399       .  A
C1663      C1668   1.401       .  A
C1664      C1665   1.397       .  A
C1664      H1677   1.083       .  S
C1665      C1666   1.417       .  A
C1665      H1678   1.077       .  S
C1666      C1672   1.429       .  A
C1666      C1667   1.421       .  A
C1667      C1669   1.399       .  A
C1667      C1668   1.403       .  A
C1668      H1679   1.085       .  S
C1669      C1670   1.390       .  A
C1669      H1680   1.084       .  S
C1670      C1671   1.399       .  A
C1670      H1681   1.084       .  S
C1671      C1672   1.424       .  A
C1671      C1676   1.406       .  A
C1672      C1673   1.413       .  A
C1673      C1674   1.394       .  A
C1673      H1682   1.077       .  S
C1674      C1675   1.401       .  A
C1674      H1683   1.083       .  S
C1675      C1676   1.401       .  A
C1676      H1684   1.084       .  S
C1685      C1686   1.398       .  A
C1685      C1690   1.400       .  A
C1686      C1687   1.396       .  A
C1686      H1699   1.084       .  S
C1687      C1688   1.416       .  A
C1687      H1700   1.077       .  S
C1688      C1694   1.432       .  A
C1688      C1689   1.424       .  A
C1689      C1691   1.400       .  A
C1689      C1690   1.408       .  A
C1690      H1701   1.085       .  S
C1691      C1692   1.391       .  A
C1691      H1702   1.084       .  S
C1692      C1693   1.400       .  A
C1692      H1703   1.084       .  S
C1693      C1694   1.422       .  A
C1693      C1698   1.409       .  A
C1694      C1695   1.415       .  A
C1695      C1696   1.397       .  A
C1695      H1704   1.077       .  S
C1696      C1697   1.403       .  A
C1696      H1705   1.083       .  S
C1697      C1698   1.405       .  A
C1698      H1706   1.084       .  S
C1707      C1708   1.402       .  A
C1707      C1712   1.402       .  A
C1708      C1709   1.399       .  A
C1708      H1721   1.084       .  S
C1709      C1710   1.415       .  A
C1709      H1722   1.077       .  S
C1710      C1716   1.436       .  A
C1710      C1711   1.425       .  A
C1711      C1713   1.400       .  A
C1711      C1712   1.412       .  A
C1712      H1723   1.084       .  S
C1713      C1714   1.393       .  A
C1713      H1724   1.084       .  S
C1714      C1715   1.401       .  A
C1714      H1725   1.084       .  S
C1715      C1716   1.422       .  A
C1715      C1720   1.410       .  A
C1716      C1717   1.416       .  A
C1717      C1718   1.401       .  A
C1717      H1726   1.077       .  S
C1718      C1719   1.403       .  A
C1718      H1727   1.083       .  S
C1719      C1720   1.405       .  A
C1720      H1728   1.084       .  S
C1729      C1730   1.406       .  A
C1729      C1734   1.406       .  A
C1730      C1731   1.397       .  A
C1730      H1743   1.082       .  S
C1731      C1732   1.413       .  A
C1731      H1744   1.078       .  S
C1732      C1738   1.430       .  A
C1732      C1733   1.421       .  A
C1733      C1735   1.400   1_455  A
C1733      C1734   1.405       .  A
C1734      H1745   1.083   1_455  S
C1735      C1736   1.390       .  A
C1735      H1746   1.084       .  S
C1736      C1737   1.399   1_655  A
C1736      H1747   1.084       .  S
C1737      C1738   1.422       .  A
C1737      C1742   1.404       .  A
C1738      C1739   1.416       .  A
C1739      C1740   1.398       .  A
C1739      H1748   1.078       .  S
C1740      C1741   1.400       .  A
C1740      H1749   1.083       .  S
C1741      C1742   1.400       .  A
C1742      H1750   1.085   1_455  S
C1751      C1752   1.401       .  A
C1751      C1756   1.400       .  A
C1752      C1753   1.400       .  A
C1752      H1765   1.083       .  S
C1753      C1754   1.416       .  A
C1753      H1766   1.077       .  S
C1754      C1760   1.434       .  A
C1754      C1755   1.424       .  A
C1755      C1757   1.399       .  A
C1755      C1756   1.407       .  A
C1756      H1767   1.085       .  S
C1757      C1758   1.390       .  A
C1757      H1768   1.084       .  S
C1758      C1759   1.400       .  A
C1758      H1769   1.084       .  S
C1759      C1760   1.422       .  A
C1759      C1764   1.406       .  A
C1760      C1761   1.416       .  A
C1761      C1762   1.401       .  A
C1761      H1770   1.077       .  S
C1762      C1763   1.403       .  A
C1762      H1771   1.083       .  S
C1763      C1764   1.404       .  A
C1764      H1772   1.084       .  S
C1773      C1774   1.401       .  A
C1773      C1778   1.403       .  A
C1774      C1775   1.399       .  A
C1774      H1787   1.083       .  S
C1775      C1776   1.415       .  A
C1775      H1788   1.077       .  S
C1776      C1782   1.433       .  A
C1776      C1777   1.423       .  A
C1777      C1779   1.400       .  A
C1777      C1778   1.408       .  A
C1778      H1789   1.085       .  S
C1779      C1780   1.391       .  A
C1779      H1790   1.084       .  S
C1780      C1781   1.400       .  A
C1780      H1791   1.084       .  S
C1781      C1782   1.422       .  A
C1781      C1786   1.407       .  A
C1782      C1783   1.416       .  A
C1783      C1784   1.399       .  A
C1783      H1792   1.077       .  S
C1784      C1785   1.401       .  A
C1784      H1793   1.083       .  S
C1785      C1786   1.405       .  A
C1786      H1794   1.084       .  S
C1795      C1796   1.402       .  A
C1795      C1800   1.403       .  A
C1796      C1797   1.394       .  A
C1796      H1809   1.083       .  S
C1797      C1798   1.414       .  A
C1797      H1810   1.077       .  S
C1798      C1804   1.429       .  A
C1798      C1799   1.422       .  A
C1799      C1801   1.400       .  A
C1799      C1800   1.406       .  A
C1800      H1811   1.084       .  S
C1801      C1802   1.391       .  A
C1801      H1812   1.084       .  S
C1802      C1803   1.400       .  A
C1802      H1813   1.084       .  S
C1803      C1804   1.423       .  A
C1803      C1808   1.407       .  A
C1804      C1805   1.414       .  A
C1805      C1806   1.394       .  A
C1805      H1814   1.077       .  S
C1806      C1807   1.400       .  A
C1806      H1815   1.083       .  S
C1807      C1808   1.402       .  A
C1808      H1816   1.084       .  S
C1817      C1818   1.402       .  A
C1817      C1822   1.402       .  A
C1818      C1819   1.398       .  A
C1818      H1831   1.083       .  S
C1819      C1820   1.416       .  A
C1819      H1832   1.077       .  S
C1820      C1826   1.432       .  A
C1820      C1821   1.422       .  A
C1821      C1823   1.399       .  A
C1821      C1822   1.405       .  A
C1822      H1833   1.084       .  S
C1823      C1824   1.390       .  A
C1823      H1834   1.084       .  S
C1824      C1825   1.399       .  A
C1824      H1835   1.084       .  S
C1825      C1826   1.424       .  A
C1825      C1830   1.408       .  A
C1826      C1827   1.414       .  A
C1827      C1828   1.396       .  A
C1827      H1836   1.077       .  S
C1828      C1829   1.403       .  A
C1828      H1837   1.083       .  S
C1829      C1830   1.402       .  A
C1830      H1838   1.084       .  S
C1839      C1840   1.405       .  A
C1839      C1844   1.405       .  A
C1840      C1841   1.396       .  A
C1840      H1853   1.082       .  S
C1841      C1842   1.413       .  A
C1841      H1854   1.078       .  S
C1842      C1848   1.428       .  A
C1842      C1843   1.421       .  A
C1843      C1845   1.400       .  A
C1843      C1844   1.404       .  A
C1844      H1855   1.083       .  S
C1845      C1846   1.389       .  A
C1845      H1856   1.084       .  S
C1846      C1847   1.399       .  A
C1846      H1857   1.084       .  S
C1847      C1848   1.422       .  A
C1847      C1852   1.402       .  A
C1848      C1849   1.416       .  A
C1849      C1850   1.396       .  A
C1849      H1858   1.078       .  S
C1850      C1851   1.398       .  A
C1850      H1859   1.083       .  S
C1851      C1852   1.398       .  A
C1852      H1860   1.085       .  S
C1861      C1862   1.398       .  A
C1861      C1866   1.401       .  A
C1862      C1863   1.398       .  A
C1862      H1875   1.083       .  S
C1863      C1864   1.417       .  A
C1863      H1876   1.077       .  S
C1864      C1870   1.430       .  A
C1864      C1865   1.422       .  A
C1865      C1867   1.400       .  A
C1865      C1866   1.405       .  A
C1866      H1877   1.085       .  S
C1867      C1868   1.390       .  A
C1867      H1878   1.084       .  S
C1868      C1869   1.399       .  A
C1868      H1879   1.084       .  S
C1869      C1870   1.423       .  A
C1869      C1874   1.407       .  A
C1870      C1871   1.413       .  A
C1871      C1872   1.396       .  A
C1871      H1880   1.077       .  S
C1872      C1873   1.403       .  A
C1872      H1881   1.083       .  S
C1873      C1874   1.403       .  A
C1874      H1882   1.084       .  S
C1883      C1884   1.401       .  A
C1883      C1888   1.400       .  A
C1884      C1885   1.403       .  A
C1884      H1897   1.083       .  S
C1885      C1886   1.418       .  A
C1885      H1898   1.078       .  S
C1886      C1892   1.434       .  A
C1886      C1887   1.422       .  A
C1887      C1889   1.398       .  A
C1887      C1888   1.402       .  A
C1888      H1899   1.085       .  S
C1889      C1890   1.387       .  A
C1889      H1900   1.084       .  S
C1890      C1891   1.398       .  A
C1890      H1901   1.084       .  S
C1891      C1892   1.423       .  A
C1891      C1896   1.404       .  A
C1892      C1893   1.416       .  A
C1893      C1894   1.401       .  A
C1893      H1902   1.078       .  S
C1894      C1895   1.404       .  A
C1894      H1903   1.083       .  S
C1895      C1896   1.400       .  A
C1896      H1904   1.085       .  S
C1905      C1906   1.401       .  A
C1905      C1910   1.403       .  A
C1906      C1907   1.396       .  A
C1906      H1919   1.083       .  S
C1907      C1908   1.415       .  A
C1907      H1920   1.077       .  S
C1908      C1914   1.431       .  A
C1908      C1909   1.422       .  A
C1909      C1911   1.400       .  A
C1909      C1910   1.406       .  A
C1910      H1921   1.084       .  S
C1911      C1912   1.390       .  A
C1911      H1922   1.084       .  S
C1912      C1913   1.399       .  A
C1912      H1923   1.084       .  S
C1913      C1914   1.423       .  A
C1913      C1918   1.406       .  A
C1914      C1915   1.415       .  A
C1915      C1916   1.395       .  A
C1915      H1924   1.077       .  S
C1916      C1917   1.399       .  A
C1916      H1925   1.084       .  S
C1917      C1918   1.401       .  A
C1918      H1926   1.085       .  S
C1927      C1928   1.399       .  A
C1927      C1932   1.397       .  A
C1928      C1929   1.400       .  A
C1928      H1941   1.083       .  S
C1929      C1930   1.418       .  A
C1929      H1942   1.078       .  S
C1930      C1936   1.431       .  A
C1930      C1931   1.422       .  A
C1931      C1933   1.398       .  A
C1931      C1932   1.401       .  A
C1932      H1943   1.085       .  S
C1933      C1934   1.387       .  A
C1933      H1944   1.084       .  S
C1934      C1935   1.398       .  A
C1934      H1945   1.084       .  S
C1935      C1936   1.423       .  A
C1935      C1940   1.403       .  A
C1936      C1937   1.415       .  A
C1937      C1938   1.399       .  A
C1937      H1946   1.078       .  S
C1938      C1939   1.404       .  A
C1938      H1947   1.083       .  S
C1939      C1940   1.401       .  A
C1940      H1948   1.084       .  S
C1949      C1950   1.398       .  A
C1949      C1954   1.400       .  A
C1950      C1951   1.398       .  A
C1950      H1963   1.083       .  S
C1951      C1952   1.416       .  A
C1951      H1964   1.077       .  S
C1952      C1958   1.431       .  A
C1952      C1953   1.423       .  A
C1953      C1955   1.399       .  A
C1953      C1954   1.405       .  A
C1954      H1965   1.085       .  S
C1955      C1956   1.390       .  A
C1955      H1966   1.084       .  S
C1956      C1957   1.400       .  A
C1956      H1967   1.084       .  S
C1957      C1958   1.422       .  A
C1957      C1962   1.406       .  A
C1958      C1959   1.415       .  A
C1959      C1960   1.398       .  A
C1959      H1968   1.077       .  S
C1960      C1961   1.402       .  A
C1960      H1969   1.083       .  S
C1961      C1962   1.404       .  A
C1962      H1970   1.084       .  S
C1971      C1972   1.401       .  A
C1971      C1976   1.403       .  A
C1972      C1973   1.399       .  A
C1972      H1985   1.083       .  S
C1973      C1974   1.417       .  A
C1973      H1986   1.077       .  S
C1974      C1980   1.430       .  A
C1974      C1975   1.421       .  A
C1975      C1977   1.399       .  A
C1975      C1976   1.402       .  A
C1976      H1987   1.084       .  S
C1977      C1978   1.389       .  A
C1977      H1988   1.084       .  S
C1978      C1979   1.398       .  A
C1978      H1989   1.084       .  S
C1979      C1980   1.424       .  A
C1979      C1984   1.405       .  A
C1980      C1981   1.414       .  A
C1981      C1982   1.395       .  A
C1981      H1990   1.077       .  S
C1982      C1983   1.400       .  A
C1982      H1991   1.084       .  S
C1983      C1984   1.398       .  A
C1984      H1992   1.085       .  S
C1993      C1994   1.401       .  A
C1993      C1998   1.401       .  A
C1994      C1995   1.391       .  A
C1994      H2007   1.084       .  S
C1995      C1996   1.412       .  A
C1995      H2008   1.077       .  S
C1996      C2002   1.428       .  A
C1996      C1997   1.424       .  A
C1997      C1999   1.400       .  A
C1997      C1998   1.408       .  A
C1998      H2009   1.084       .  S
C1999      C2000   1.391       .  A
C1999      H2010   1.084       .  S
C2000      C2001   1.400       .  A
C2000      H2011   1.084       .  S
C2001      C2002   1.422       .  A
C2001      C2006   1.406       .  A
C2002      C2003   1.415       .  A
C2003      C2004   1.393       .  A
C2003      H2012   1.077       .  S
C2004      C2005   1.398       .  A
C2004      H2013   1.084       .  S
C2005      C2006   1.401       .  A
C2006      H2014   1.085       .  S
C2015      C2016   1.403       .  A
C2015      C2020   1.404       .  A
C2016      C2017   1.401       .  A
C2016      H2029   1.083       .  S
C2017      C2018   1.416       .  A
C2017      H2030   1.078       .  S
C2018      C2024   1.434       .  A
C2018      C2019   1.423       .  A
C2019      C2021   1.399       .  A
C2019      C2020   1.406       .  A
C2020      H2031   1.084       .  S
C2021      C2022   1.389       .  A
C2021      H2032   1.084       .  S
C2022      C2023   1.399       .  A
C2022      H2033   1.084       .  S
C2023      C2024   1.423       .  A
C2023      C2028   1.405       .  A
C2024      C2025   1.417       .  A
C2025      C2026   1.401       .  A
C2025      H2034   1.078       .  S
C2026      C2027   1.400       .  A
C2026      H2035   1.083       .  S
C2027      C2028   1.400       .  A
C2028      H2036   1.085       .  S
C2037      C2038   1.404       .  A
C2037      C2042   1.409       .  A
C2038      C2039   1.399       .  A
C2038      H2051   1.082       .  S
C2039      C2040   1.414       .  A
C2039      H2052   1.078       .  S
C2040      C2046   1.428       .  A
C2040      C2041   1.419       .  A
C2041      C2043   1.401       .  A
C2041      C2042   1.402       .  A
C2042      H2053   1.082       .  S
C2043      C2044   1.390       .  A
C2043      H2054   1.084       .  S
C2044      C2045   1.399       .  A
C2044      H2055   1.084       .  S
C2045      C2046   1.423       .  A
C2045      C2050   1.404       .  A
C2046      C2047   1.414       .  A
C2047      C2048   1.396       .  A
C2047      H2056   1.078       .  S
C2048      C2049   1.400       .  A
C2048      H2057   1.083       .  S
C2049      C2050   1.400       .  A
C2050      H2058   1.085       .  S
C2059      C2060   1.400       .  A
C2059      C2064   1.399       .  A
C2060      C2061   1.395       .  A
C2060      H2073   1.084       .  S
C2061      C2062   1.415       .  A
C2061      H2074   1.077       .  S
C2062      C2068   1.429       .  A
C2062      C2063   1.423       .  A
C2063      C2065   1.399       .  A
C2063      C2064   1.404       .  A
C2064      H2075   1.085       .  S
C2065      C2066   1.389       .  A
C2065      H2076   1.084       .  S
C2066      C2067   1.399       .  A
C2066      H2077   1.084       .  S
C2067      C2068   1.423       .  A
C2067      C2072   1.404       .  A
C2068      C2069   1.414       .  A
C2069      C2070   1.395       .  A
C2069      H2078   1.077       .  S
C2070      C2071   1.402       .  A
C2070      H2079   1.083       .  S
C2071      C2072   1.401       .  A
C2072      H2080   1.084       .  S
C2081      C2082   1.400       .  A
C2081      C2086   1.405       .  A
C2082      C2083   1.392       .  A
C2082      H2095   1.083       .  S
C2083      C2084   1.413       .  A
C2083      H2096   1.076       .  S
C2084      C2090   1.428       .  A
C2084      C2085   1.422       .  A
C2085      C2087   1.401       .  A
C2085      C2086   1.408       .  A
C2086      H2097   1.084       .  S
C2087      C2088   1.393       .  A
C2087      H2098   1.084       .  S
C2088      C2089   1.400       .  A
C2088      H2099   1.084       .  S
C2089      C2090   1.424       .  A
C2089      C2094   1.408       .  A
C2090      C2091   1.414       .  A
C2091      C2092   1.391       .  A
C2091      H2100   1.076       .  S
C2092      C2093   1.396       .  A
C2092      H2101   1.084       .  S
C2093      C2094   1.400       .  A
C2094      H2102   1.084       .  S
C2103      C2104   1.398       .  A
C2103      C2108   1.399       .  A
C2104      C2105   1.396       .  A
C2104      H2117   1.083       .  S
C2105      C2106   1.416       .  A
C2105      H2118   1.078       .  S
C2106      C2112   1.428       .  A
C2106      C2107   1.422       .  A
C2107      C2109   1.399       .  A
C2107      C2108   1.402       .  A
C2108      H2119   1.085       .  S
C2109      C2110   1.389       .  A
C2109      H2120   1.084       .  S
C2110      C2111   1.400       .  A
C2110      H2121   1.084       .  S
C2111      C2112   1.420       .  A
C2111      C2116   1.403       .  A
C2112      C2113   1.412       .  A
C2113      C2114   1.396       .  A
C2113      H2122   1.078       .  S
C2114      C2115   1.405       .  A
C2114      H2123   1.082       .  S
C2115      C2116   1.406       .  A
C2116      H2124   1.083       .  S
C2125      C2126   1.399       .  A
C2125      C2130   1.400       .  A
C2126      C2127   1.394       .  A
C2126      H2139   1.084       .  S
C2127      C2128   1.414       .  A
C2127      H2140   1.077       .  S
C2128      C2134   1.429       .  A
C2128      C2129   1.423       .  A
C2129      C2131   1.399       .  A
C2129      C2130   1.406       .  A
C2130      H2141   1.085       .  S
C2131      C2132   1.390       .  A
C2131      H2142   1.084       .  S
C2132      C2133   1.400       .  A
C2132      H2143   1.084       .  S
C2133      C2134   1.422       .  A
C2133      C2138   1.405       .  A
C2134      C2135   1.415       .  A
C2135      C2136   1.394       .  A
C2135      H2144   1.077       .  S
C2136      C2137   1.400       .  A
C2136      H2145   1.083       .  S
C2137      C2138   1.402       .  A
C2138      H2146   1.084       .  S
C2147      C2148   1.399       .  A
C2147      C2152   1.399       .  A
C2148      C2149   1.401       .  A
C2148      H2161   1.083       .  S
C2149      C2150   1.418       .  A
C2149      H2162   1.077       .  S
C2150      C2156   1.432       .  A
C2150      C2151   1.422       .  A
C2151      C2153   1.399       .  A
C2151      C2152   1.402       .  A
C2152      H2163   1.085       .  S
C2153      C2154   1.388       .  A
C2153      H2164   1.084       .  S
C2154      C2155   1.399       .  A
C2154      H2165   1.084       .  S
C2155      C2156   1.424       .  A
C2155      C2160   1.405       .  A
C2156      C2157   1.414       .  A
C2157      C2158   1.398       .  A
C2157      H2166   1.077       .  S
C2158      C2159   1.403       .  A
C2158      H2167   1.083       .  S
C2159      C2160   1.401       .  A
C2160      H2168   1.084       .  S
C2169      C2170   1.405       .  A
C2169      C2174   1.407       .  A
C2170      C2171   1.396       .  A
C2170      H2183   1.082       .  S
C2171      C2172   1.412       .  A
C2171      H2184   1.078       .  S
C2172      C2178   1.429       .  A
C2172      C2173   1.420       .  A
C2173      C2175   1.400       .  A
C2173      C2174   1.405       .  A
C2174      H2185   1.083       .  S
C2175      C2176   1.391       .  A
C2175      H2186   1.084       .  S
C2176      C2177   1.399       .  A
C2176      H2187   1.084       .  S
C2177      C2178   1.422       .  A
C2177      C2182   1.404       .  A
C2178      C2179   1.415       .  A
C2179      C2180   1.397       .  A
C2179      H2188   1.078       .  S
C2180      C2181   1.399       .  A
C2180      H2189   1.083       .  S
C2181      C2182   1.401       .  A
C2182      H2190   1.085       .  S
C2191      C2192   1.399       .  A
C2191      C2196   1.403       .  A
C2192      C2193   1.392       .  A
C2192      H2205   1.084       .  S
C2193      C2194   1.414       .  A
C2193      H2206   1.076       .  S
C2194      C2200   1.428       .  A
C2194      C2195   1.422       .  A
C2195      C2197   1.401       .  A
C2195      C2196   1.408       .  A
C2196      H2207   1.084       .  S
C2197      C2198   1.393       .  A
C2197      H2208   1.084       .  S
C2198      C2199   1.400       .  A
C2198      H2209   1.084       .  S
C2199      C2200   1.423       .  A
C2199      C2204   1.409       .  A
C2200      C2201   1.413       .  A
C2201      C2202   1.391       .  A
C2201      H2210   1.076       .  S
C2202      C2203   1.399       .  A
C2202      H2211   1.084       .  S
C2203      C2204   1.401       .  A
C2204      H2212   1.084       .  S
C2213      C2214   1.398       .  A
C2213      C2218   1.403       .  A
C2214      C2215   1.398       .  A
C2214      H2227   1.083       .  S
C2215      C2216   1.417       .  A
C2215      H2228   1.077       .  S
C2216      C2222   1.430       .  A
C2216      C2217   1.421       .  A
C2217      C2219   1.400       .  A
C2217      C2218   1.404       .  A
C2218      H2229   1.085       .  S
C2219      C2220   1.390       .  A
C2219      H2230   1.084       .  S
C2220      C2221   1.400       .  A
C2220      H2231   1.084       .  S
C2221      C2222   1.423       .  A
C2221      C2226   1.407       .  A
C2222      C2223   1.414       .  A
C2223      C2224   1.396       .  A
C2223      H2232   1.077       .  S
C2224      C2225   1.402       .  A
C2224      H2233   1.083       .  S
C2225      C2226   1.402       .  A
C2226      H2234   1.084       .  S
C2235      C2236   1.402       .  A
C2235      C2240   1.400       .  A
C2236      C2237   1.397       .  A
C2236      H2249   1.083       .  S
C2237      C2238   1.415       .  A
C2237      H2250   1.077       .  S
C2238      C2244   1.428       .  A
C2238      C2239   1.422       .  A
C2239      C2241   1.398       .  A
C2239      C2240   1.400       .  A
C2240      H2251   1.084       .  S
C2241      C2242   1.386       .  A
C2241      H2252   1.084       .  S
C2242      C2243   1.397       .  A
C2242      H2253   1.084       .  S
C2243      C2244   1.423       .  A
C2243      C2248   1.399       .  A
C2244      C2245   1.417       .  A
C2245      C2246   1.397       .  A
C2245      H2254   1.077       .  S
C2246      C2247   1.398       .  A
C2246      H2255   1.083       .  S
C2247      C2248   1.396       .  A
C2248      H2256   1.085       .  S
C2257      C2258   1.400       .  A
C2257      C2262   1.401       .  A
C2258      C2259   1.397       .  A
C2258      H2271   1.083       .  S
C2259      C2260   1.416       .  A
C2259      H2272   1.077       .  S
C2260      C2266   1.429       .  A
C2260      C2261   1.422       .  A
C2261      C2263   1.399       .  A
C2261      C2262   1.402       .  A
C2262      H2273   1.085       .  S
C2263      C2264   1.388       .  A
C2263      H2274   1.084       .  S
C2264      C2265   1.399       .  A
C2264      H2275   1.084       .  S
C2265      C2266   1.423       .  A
C2265      C2270   1.403       .  A
C2266      C2267   1.415       .  A
C2267      C2268   1.397       .  A
C2267      H2276   1.077       .  S
C2268      C2269   1.400       .  A
C2268      H2277   1.083       .  S
C2269      C2270   1.400       .  A
C2270      H2278   1.085       .  S
C2279      C2280   1.401       .  A
C2279      C2284   1.402       .  A
C2280      C2281   1.397       .  A
C2280      H2293   1.083       .  S
C2281      C2282   1.415       .  A
C2281      H2294   1.077       .  S
C2282      C2288   1.430       .  A
C2282      C2283   1.422       .  A
C2283      C2285   1.399       .  A
C2283      C2284   1.404       .  A
C2284      H2295   1.084       .  S
C2285      C2286   1.389       .  A
C2285      H2296   1.084       .  S
C2286      C2287   1.399       .  A
C2286      H2297   1.084       .  S
C2287      C2288   1.424       .  A
C2287      C2292   1.405       .  A
C2288      C2289   1.415       .  A
C2289      C2290   1.395       .  A
C2289      H2298   1.077       .  S
C2290      C2291   1.399       .  A
C2290      H2299   1.084       .  S
C2291      C2292   1.399       .  A
C2292      H2300   1.085       .  S
C2301      C2302   1.399       .  A
C2301      C2306   1.398       .  A
C2302      C2303   1.398       .  A
C2302      H2315   1.083       .  S
C2303      C2304   1.417       .  A
C2303      H2316   1.077       .  S
C2304      C2310   1.430       .  A
C2304      C2305   1.423       .  A
C2305      C2307   1.398       .  A
C2305      C2306   1.402       .  A
C2306      H2317   1.085       .  S
C2307      C2308   1.388       .  A
C2307      H2318   1.084       .  S
C2308      C2309   1.398       .  A
C2308      H2319   1.084       .  S
C2309      C2310   1.423       .  A
C2309      C2314   1.403       .  A
C2310      C2311   1.415       .  A
C2311      C2312   1.397       .  A
C2311      H2320   1.077       .  S
C2312      C2313   1.401       .  A
C2312      H2321   1.083       .  S
C2313      C2314   1.400       .  A
C2314      H2322   1.084       .  S
C2323      C2324   1.400       .  A
C2323      C2328   1.401       .  A
C2324      C2325   1.401       .  A
C2324      H2337   1.083       .  S
C2325      C2326   1.417       .  A
C2325      H2338   1.078       .  S
C2326      C2332   1.433       .  A
C2326      C2327   1.422       .  A
C2327      C2329   1.399       .  A
C2327      C2328   1.405       .  A
C2328      H2339   1.085       .  S
C2329      C2330   1.390       .  A
C2329      H2340   1.084       .  S
C2330      C2331   1.399       .  A
C2330      H2341   1.084       .  S
C2331      C2332   1.423       .  A
C2331      C2336   1.407       .  A
C2332      C2333   1.415       .  A
C2333      C2334   1.399       .  A
C2333      H2342   1.078       .  S
C2334      C2335   1.403       .  A
C2334      H2343   1.083       .  S
C2335      C2336   1.403       .  A
C2336      H2344   1.084       .  S
C2345      C2346   1.398       .  A
C2345      C2350   1.401       .  A
C2346      C2347   1.397       .  A
C2346      H2359   1.084       .  S
C2347      C2348   1.415       .  A
C2347      H2360   1.077       .  S
C2348      C2354   1.432       .  A
C2348      C2349   1.424       .  A
C2349      C2351   1.400       .  A
C2349      C2350   1.410       .  A
C2350      H2361   1.085       .  S
C2351      C2352   1.392       .  A
C2351      H2362   1.084       .  S
C2352      C2353   1.401       .  A
C2352      H2363   1.084       .  S
C2353      C2354   1.422       .  A
C2353      C2358   1.409       .  A
C2354      C2355   1.415       .  A
C2355      C2356   1.397       .  A
C2355      H2364   1.077       .  S
C2356      C2357   1.402       .  A
C2356      H2365   1.083       .  S
C2357      C2358   1.405       .  A
C2358      H2366   1.084       .  S
C2367      C2368   1.399       .  A
C2367      C2372   1.402       .  A
C2368      C2369   1.395       .  A
C2368      H2381   1.084       .  S
C2369      C2370   1.415       .  A
C2369      H2382   1.077       .  S
C2370      C2376   1.431       .  A
C2370      C2371   1.423       .  A
C2371      C2373   1.400       .  A
C2371      C2372   1.409       .  A
C2372      H2383   1.084       .  S
C2373      C2374   1.392       .  A
C2373      H2384   1.084       .  S
C2374      C2375   1.401       .  A
C2374      H2385   1.084       .  S
C2375      C2376   1.422       .  A
C2375      C2380   1.408       .  A
C2376      C2377   1.415       .  A
C2377      C2378   1.396       .  A
C2377      H2386   1.077       .  S
C2378      C2379   1.400       .  A
C2378      H2387   1.083       .  S
C2379      C2380   1.404       .  A
C2380      H2388   1.084       .  S
