geometry optimzed in LAMMPS
_audit_creation_date              2020-11-30 
_audit_creation_method            'lammps2cif' 
_symmetry_space_group_name_H-M    'P1' 
_symmetry_Int_Tables_number       1 
_symmetry_cell_setting            triclinic 
loop_ 
_symmetry_equiv_pos_as_xyz 
  x,y,z 
_cell_length_a                    30.027154477142286 
_cell_length_b                    43.52405766596649 
_cell_length_c                    44.38763806605835 
_cell_angle_alpha                 90.36919191664096 
_cell_angle_beta                  90.01734968807587 
_cell_angle_gamma                 89.94364537232009 
loop_ 
_atom_site_label 
_atom_site_type_symbol 
_atom_site_fract_x 
_atom_site_fract_y 
_atom_site_fract_z 
_atom_site_charge 
O1          O  0.16369411  0.99984939  0.45723119    -0.72640
O2          O  0.16129582  0.99831351  0.04743482    -0.73620
O3          O  0.16181057  0.95288603  0.00113249    -0.62240
O4          O  0.16303897  0.04523903  0.50355975    -0.70650
O5          O  0.08920346  0.04539421  0.50072283    -0.70210
O6          O  0.08784461  0.95328763  0.00229440    -0.61460
O7          O  0.08763215  0.00025299  0.04666951    -0.73970
O8          O  0.08997998  0.99862121  0.45628808    -0.72750
Cu9        Cu  0.16503905  0.99903186  0.00238014     1.04560
Cu10       Cu  0.08609192  0.99939461  0.50146794     1.04330
C11         C  0.12726309  0.99929826  0.44238231     0.93550
C12         C  0.12413840  0.99942584  0.06144356     0.92690
C13         C  0.12465875  0.93860999  0.50165601     0.84840
C14         C  0.12617297  0.05982738  0.00202497     0.91110
O15         O  0.16398336  0.00002351  0.20719972    -0.72640
O16         O  0.16261097  0.00153521  0.29753747    -0.73620
O17         O  0.16346179  0.95474391  0.25323665    -0.62240
O18         O  0.16331875  0.04688820  0.25230929    -0.70650
O19         O  0.08940491  0.04675366  0.25128918    -0.70210
O20         O  0.08949561  0.95476902  0.25160564    -0.61460
O21         O  0.08886389  0.00126014  0.29678851    -0.73970
O22         O  0.09025181  0.00026498  0.20650999    -0.72750
Cu23       Cu  0.16593357  0.00080387  0.25254371     1.04560
Cu24       Cu  0.08694534  0.00076877  0.25155401     1.04330
C25         C  0.12738772  0.99982775  0.19246381     0.93550
C26         C  0.12543214  0.00164230  0.31152905     0.92690
C27         C  0.12646741  0.94030934  0.25261530     0.84840
C28         C  0.12628231  0.06134583  0.25186738     0.91110
C29         C  0.12649761  0.19268388  0.00008372     0.03430
C30         C  0.16681071  0.20869149  0.99808531    -0.12720
C31         C  0.16753843  0.24039690  0.99175091     0.00930
C32         C  0.12657326  0.25541184  0.98681320    -0.11250
C33         C  0.08558108  0.24047726  0.99163261     0.03420
C34         C  0.08628826  0.20884762  0.99815050    -0.10670
H35         H  0.19734622  0.19601559  0.00138179     0.09020
H36         H  0.12659725  0.27883032  0.97905872     0.06540
H37         H  0.05580487  0.19632552  0.00213972     0.06390
C38         C  0.12413497  0.19424121  0.24606944     0.03430
C39         C  0.08420498  0.21085469  0.24601390    -0.12720
C40         C  0.08350242  0.24233782  0.23917184     0.00930
C41         C  0.12438212  0.25719064  0.23377610    -0.11250
C42         C  0.16538358  0.24202653  0.23813978     0.03420
C43         C  0.16455676  0.21015305  0.24371944    -0.10670
H44         H  0.05375871  0.19882307  0.25137377     0.09020
H45         H  0.12425226  0.28067570  0.22619639     0.06540
H46         H  0.19506953  0.19732130  0.24639411     0.06390
C47         C  0.12395867  0.80603585  0.50088533     0.03430
C48         C  0.16415030  0.78995427  0.49855291    -0.12720
C49         C  0.16479651  0.75817808  0.49223376     0.00930
C50         C  0.12368910  0.74322604  0.48767927    -0.11250
C51         C  0.08280961  0.75832557  0.49296475     0.03420
C52         C  0.08362743  0.79005128  0.49952174    -0.10670
H53         H  0.19457962  0.80271491  0.50207485     0.09020
H54         H  0.12342987  0.71974999  0.47980606     0.06540
H55         H  0.05320685  0.80278483  0.50336092     0.06390
C56         C  0.12651188  0.80793409  0.24852008     0.03310
C57         C  0.16675389  0.79187234  0.24626437    -0.12720
C58         C  0.16733945  0.75999581  0.24011628     0.00930
C59         C  0.12600654  0.74498452  0.23634540    -0.11250
C60         C  0.08531899  0.76017320  0.24193088     0.03420
C61         C  0.08624618  0.79189480  0.24792148    -0.10670
H62         H  0.19718634  0.80474688  0.24925059     0.09020
H63         H  0.12509585  0.72141570  0.22888529     0.06540
H64         H  0.05588413  0.80459380  0.25217052     0.06390
C65         C  0.24914480  0.69264706  0.99912085     0.03430
C66         C  0.20873100  0.70863156  0.99740614    -0.12720
C67         C  0.20787342  0.74053831  0.99192697     0.00930
C68         C  0.24886449  0.75571819  0.98765982    -0.11250
C69         C  0.03980431  0.74078554  0.99273010     0.03420
C70         C  0.03917128  0.70907846  0.99874054    -0.10670
H71         H  0.17831197  0.69577448  0.00035926     0.09020
H72         H  0.24898238  0.77926605  0.98030590     0.06540
H73         H  0.06962819  0.69666286  0.00325529     0.06390
C74         C  0.00192062  0.69444358  0.24815747     0.03430
C75         C  0.21150939  0.71032994  0.24450598    -0.12720
C76         C  0.21053385  0.74233200  0.23959536     0.00930
C77         C  0.00156685  0.75756259  0.23596326    -0.11250
C78         C  0.04227669  0.74279941  0.24213932     0.03420
C79         C  0.04151901  0.71143404  0.24951031    -0.10670
H80         H  0.18101689  0.69741801  0.24577331     0.09020
H81         H  0.00192391  0.78102192  0.22833774     0.06540
H82         H  0.07181211  0.69995294  0.25629784     0.06390
C83         C  0.25146460  0.30590683  0.49966462     0.03430
C84         C  0.21122232  0.28979143  0.49803673    -0.12720
C85         C  0.21054987  0.25800442  0.49172161     0.00930
C86         C  0.25155477  0.24296789  0.48680707    -0.11250
C87         C  0.04252718  0.25807202  0.49148312     0.03420
C88         C  0.04175259  0.28987425  0.49758935    -0.10670
H89         H  0.18071103  0.30247097  0.50164529     0.09020
H90         H  0.25160937  0.21939910  0.47920174     0.06540
H91         H  0.07218089  0.30260545  0.50128192     0.06390
C92         C  0.99927743  0.30747060  0.24680068     0.03430
C93         C  0.03956766  0.29145025  0.24539391    -0.12720
C94         C  0.04043721  0.25976939  0.23908120     0.00930
C95         C  0.99960010  0.24464932  0.23388453    -0.11250
C96         C  0.20843867  0.25964152  0.23848219     0.03420
C97         C  0.20904142  0.29141707  0.24499076    -0.10670
H98         H  0.06995900  0.30413189  0.24944349     0.09020
H99         H  0.00003034  0.22111559  0.22616571     0.06540
H100        H  0.17857914  0.30416189  0.24858718     0.06390
O101        O  0.03716502  0.49919784  0.04737381    -0.72640
O102        O  0.03483563  0.49946530  0.45699297    -0.73620
O103        O  0.03583682  0.54534586  0.50233172    -0.62240
O104        O  0.03637636  0.45325394  0.00141729    -0.70650
O105        O  0.21245149  0.45284879  0.00336949    -0.70210
O106        O  0.21191284  0.54518946  0.50379939    -0.61460
O107        O  0.21104172  0.49880550  0.45802585    -0.73970
O108        O  0.21344171  0.49911883  0.04837722    -0.72750
Cu109      Cu  0.03861629  0.49931279  0.50203889     1.04560
Cu110      Cu  0.20962700  0.49899197  0.00338913     1.04330
C111        C  0.25072034  0.49927271  0.06226322     0.93550
C112        C  0.24751601  0.49900922  0.44316552     0.92690
C113        C  0.24881131  0.55978203  0.50326247     0.84840
C114        C  0.24959255  0.43857024  0.50218372     0.91110
O115        O  0.03467528  0.50004655  0.20748314    -0.72640
O116        O  0.03549060  0.50067587  0.29787037    -0.73620
O117        O  0.03556636  0.45434174  0.25240298    -0.62240
O118        O  0.03484030  0.54631142  0.25260145    -0.70650
O119        O  0.21100998  0.54631263  0.25310086    -0.70210
O120        O  0.21159449  0.45407449  0.25387890    -0.61460
O121        O  0.21167536  0.50071791  0.29840838    -0.73970
O122        O  0.21096053  0.49948151  0.20799131    -0.72750
Cu123      Cu  0.03769463  0.50035450  0.25260803     1.04560
Cu124      Cu  0.20872162  0.50015113  0.25332375     1.04330
C125        C  0.24760821  0.49946748  0.19333213     0.93550
C126        C  0.24880077  0.50091837  0.31247555     0.92690
C127        C  0.24872712  0.43975846  0.25319233     0.84840
C128        C  0.24791119  0.56091452  0.25294475     0.91110
C129        C  0.24896434  0.50095916  0.34590780     0.00140
C130        C  0.21297569  0.48749383  0.36113817    -0.11730
C131        C  0.21183378  0.48626766  0.39265367     0.02380
C132        C  0.24698961  0.49919066  0.40972116     0.00060
C133        C  0.03288135  0.51275628  0.39447878    -0.11670
C134        C  0.03413187  0.51384057  0.36297800     0.02270
H135        H  0.18592208  0.47728312  0.34835648     0.15250
H136        H  0.05990672  0.52303221  0.40724534     0.15250
C137        C  0.07113149  0.52938951  0.34899323     0.36900
C138        C  0.17515730  0.47036382  0.40665187     0.36800
N139        N  0.10080582  0.54193168  0.33790670    -0.43440
N140        N  0.14583934  0.45746313  0.41778408    -0.43440
C141        C  0.25106911  0.49929545  0.09579459     0.00140
C142        C  0.21233000  0.49005615  0.11103451    -0.11730
C143        C  0.21024470  0.48977462  0.14253998     0.02380
C144        C  0.24762196  0.49905011  0.15977263     0.00060
C145        C  0.03644572  0.50817223  0.14452614    -0.11670
C146        C  0.03854005  0.50841014  0.11299868     0.02270
H147        H  0.18344900  0.48258633  0.09827878     0.15250
H148        H  0.06533352  0.51562089  0.15728346     0.15250
C149        C  0.07923767  0.51900909  0.09919692     0.36900
C150        C  0.16961117  0.47895237  0.15626031     0.36800
N151        N  0.11187874  0.52755336  0.08822536    -0.43440
N152        N  0.13699980  0.47017758  0.16709839    -0.43440
C153        C  0.24914360  0.40600220  0.25251492     0.00140
C154        C  0.01800230  0.39116867  0.22751035    -0.11730
C155        C  0.01795253  0.35912827  0.22529902     0.02380
C156        C  0.99949675  0.34140444  0.24871786     0.00060
C157        C  0.23080400  0.35625876  0.27386622    -0.11670
C158        C  0.23057428  0.38841902  0.27593652     0.02270
H159        H  0.03189114  0.40470304  0.20934944     0.15250
H160        H  0.21681844  0.34271029  0.29196493     0.15250
C161        C  0.21281260  0.40286977  0.30273058     0.36900
C162        C  0.03531666  0.34495874  0.19821827     0.36800
N163        N  0.19890338  0.41446830  0.32429588    -0.43440
N164        N  0.04898176  0.33351539  0.17650203    -0.43440
C165        C  0.25158206  0.33993244  0.50156919     0.00140
C166        C  0.02186724  0.35635927  0.47816652    -0.11730
C167        C  0.02123350  0.38849080  0.47791786     0.02380
C168        C  0.25014966  0.40474125  0.50148808     0.00060
C169        C  0.22977601  0.38844059  0.02490669    -0.11670
C170        C  0.23062851  0.35622531  0.02524989     0.02270
H171        H  0.03742938  0.34397726  0.45966800     0.15250
H172        H  0.21389649  0.40092499  0.04321062     0.15250
C173        C  0.21127584  0.34046628  0.05058496     0.36900
C174        C  0.04034937  0.40426383  0.45247601     0.36800
N175        N  0.19593944  0.32784115  0.07096212    -0.43440
N176        N  0.05527586  0.41692308  0.43198043    -0.43440
C177        C  0.24843312  0.59496457  0.25268255     0.00140
C178        C  0.03331805  0.60975995  0.23762792    -0.11730
C179        C  0.03512508  0.64180023  0.23574375     0.02380
C180        C  0.25249421  0.66011085  0.25048546     0.00060
C181        C  0.21821917  0.64511797  0.26629274    -0.11670
C182        C  0.21529751  0.61300093  0.26685962     0.02270
H183        H  0.05856381  0.59614432  0.22622294     0.15250
H184        H  0.19324337  0.65846637  0.27819422     0.15250
C185        C  0.17802343  0.59934694  0.28232684     0.36900
C186        C  0.06956121  0.65477049  0.21700428     0.36800
N187        N  0.14780884  0.58854954  0.29446728    -0.43440
N188        N  0.09734794  0.66489728  0.20198772    -0.43440
C189        C  0.24976100  0.65852882  0.00056720     0.00140
C190        C  0.22455394  0.64336522  0.02260467    -0.11730
C191        C  0.22388078  0.61117640  0.02398999     0.02380
C192        C  0.24885870  0.59367599  0.00311588     0.00060
C193        C  0.02430601  0.60876595  0.48130062    -0.11670
C194        C  0.02452062  0.64084235  0.47959452     0.02270
H195        H  0.20568250  0.65670435  0.03890849     0.15250
H196        H  0.04315154  0.59538373  0.46499549     0.15250
C197        C  0.04868591  0.65494806  0.45517693     0.36900
C198        C  0.19889121  0.59664282  0.04774686     0.36800
N199        N  0.06791129  0.66630228  0.43559414    -0.43440
N200        N  0.17912137  0.58492733  0.06686834    -0.43440
C201        C  0.12353255  0.16010384  0.24820703     0.00140
C202        C  0.15276870  0.14525183  0.26814554    -0.11730
C203        C  0.15436532  0.11311876  0.26970722     0.02380
C204        C  0.12580856  0.09524590  0.25141905     0.00060
C205        C  0.09613954  0.10998126  0.23188882    -0.11670
C206        C  0.09522648  0.14200225  0.22974680     0.02270
H207        H  0.17433654  0.15877913  0.28264415     0.15250
H208        H  0.07450450  0.09634317  0.21750628     0.15250
C209        C  0.06650877  0.15544977  0.20726183     0.36900
C210        C  0.18451463  0.09911241  0.29093592     0.36800
N211        N  0.04347843  0.16620429  0.18926228    -0.43440
N212        N  0.20863435  0.08789263  0.30797921    -0.43440
C213        C  0.12636402  0.90654844  0.25245441     0.00140
C214        C  0.10687663  0.89123613  0.22796260    -0.11730
C215        C  0.10703029  0.85916503  0.22633215     0.02380
C216        C  0.12621422  0.84189700  0.24984131     0.00060
C217        C  0.14557554  0.85723361  0.27447202    -0.11670
C218        C  0.14570526  0.88942721  0.27595377     0.02270
H219        H  0.09238424  0.90441296  0.20974413     0.15250
H220        H  0.16014180  0.84404023  0.29263394     0.15250
C221        C  0.16411365  0.90442043  0.30226474     0.36900
C222        C  0.08897630  0.84448012  0.19972938     0.36800
N223        N  0.17851409  0.91652906  0.32340991    -0.43440
N224        N  0.07476093  0.83262545  0.17839308    -0.43440
C225        C  0.12782940  0.99989623  0.40889141     0.00140
C226        C  0.08930743  0.00963539  0.39367611    -0.11730
C227        C  0.08770086  0.01079420  0.36218782     0.02380
C228        C  0.12521625  0.00171320  0.34501239     0.00060
C229        C  0.16387384  0.99223118  0.36022322    -0.11670
C230        C  0.16562013  0.99131138  0.39170829     0.02270
H231        H  0.06032690  0.01690110  0.40644798     0.15250
H232        H  0.19291824  0.98505362  0.34746211     0.15250
C233        C  0.20639190  0.98065451  0.40542407     0.36900
C234        C  0.04752875  0.02239574  0.34841605     0.36800
N235        N  0.23912106  0.97200135  0.41624378    -0.43440
N236        N  0.01532922  0.03180351  0.33748969    -0.43440
C237        C  0.12391845  0.99955548  0.09497428     0.00140
C238        C  0.16267198  0.99025651  0.11021978    -0.11730
C239        C  0.16479914  0.99004157  0.14172602     0.02380
C240        C  0.12744181  0.99939939  0.15893032     0.00060
C241        C  0.08862695  0.00859202  0.14369079    -0.11670
C242        C  0.08648583  0.00880423  0.11218266     0.02270
H243        H  0.19153747  0.98271369  0.09747958     0.15250
H244        H  0.05976310  0.01611629  0.15644494     0.15250
C245        C  0.04573258  0.01948270  0.09844118     0.36900
C246        C  0.20543671  0.97920830  0.15548656     0.36800
N247        N  0.01304160  0.02810885  0.08754655    -0.43440
N248        N  0.23805664  0.97043309  0.16635948    -0.43440
C249        C  0.12603776  0.15861571  0.00195094     0.00140
C250        C  0.10248217  0.14215468  0.47978438    -0.11730
C251        C  0.10230646  0.11002839  0.47941552     0.02380
C252        C  0.12613247  0.09370927  0.00153574     0.00060
C253        C  0.14979888  0.11002406  0.02371502    -0.11670
C254        C  0.14955614  0.14225792  0.02429094     0.02270
H255        H  0.08485411  0.15449953  0.46227995     0.15250
H256        H  0.16772357  0.09754087  0.04098109     0.15250
C257        C  0.17211987  0.15792658  0.04864486     0.36900
C258        C  0.07925595  0.09435358  0.45523497     0.36800
N259        N  0.19007445  0.17046463  0.06824144    -0.43440
N260        N  0.06100507  0.08180664  0.43576814    -0.43440
C261        C  0.12432111  0.84002813  0.50221253     0.00140
C262        C  0.14141573  0.85590938  0.47736168    -0.11730
C263        C  0.14134422  0.88801784  0.47669956     0.02380
C264        C  0.12431406  0.90479114  0.50137443     0.00060
C265        C  0.10694449  0.88901351  0.02622175    -0.11670
C266        C  0.10698631  0.85678272  0.02687217     0.02270
H267        H  0.15407435  0.84310407  0.45813259     0.15250
H268        H  0.09396308  0.90190204  0.04528994     0.15250
C269        C  0.09048970  0.84144430  0.05334875     0.36900
C270        C  0.15674225  0.90317423  0.44981954     0.36800
N271        N  0.07744539  0.82915540  0.07463406    -0.43440
N272        N  0.16862524  0.91510149  0.42804196    -0.43440
O273        O  0.16369438  0.99984935  0.95723154    -0.72640
O274        O  0.16129788  0.99831354  0.54743454    -0.73620
O275        O  0.16181141  0.95288605  0.50113216    -0.62240
O276        O  0.16303804  0.04523899  0.00356007    -0.70650
O277        O  0.08920259  0.04539417  0.00072244    -0.70210
O278        O  0.08784548  0.95328769  0.50229488    -0.61460
O279        O  0.08763419  0.00025309  0.54666993    -0.73970
O280        O  0.08998026  0.99862120  0.95628767    -0.72750
Cu281      Cu  0.16503995  0.99903189  0.50237978     1.04560
Cu282      Cu  0.08609104  0.99939456  0.00146748     1.04330
C283        C  0.12726369  0.99929824  0.94238229     0.93550
C284        C  0.12414076  0.99942595  0.56144362     0.92690
C285        C  0.12465792  0.93860996  0.00165594     0.84840
C286        C  0.12617387  0.05982742  0.50202500     0.91110
O287        O  0.16398714  0.00002348  0.70719973    -0.72640
O288        O  0.16261418  0.00153519  0.79753761    -0.73620
O289        O  0.16346529  0.95474382  0.75323673    -0.62240
O290        O  0.16332216  0.04688823  0.75230937    -0.70650
O291        O  0.08940833  0.04675357  0.75128911    -0.70210
O292        O  0.08949913  0.95476900  0.75160550    -0.61460
O293        O  0.08886711  0.00126005  0.79678834    -0.73970
O294        O  0.09025557  0.00026498  0.70650995    -0.72750
Cu295      Cu  0.16593708  0.00080384  0.75254379     1.04560
Cu296      Cu  0.08694885  0.00076871  0.75155390     1.04330
C297        C  0.12739150  0.99982779  0.69246381     0.93550
C298        C  0.12543522  0.00164227  0.81152903     0.92690
C299        C  0.12647088  0.94030928  0.75261525     0.84840
C300        C  0.12628566  0.06134581  0.75186737     0.91110
C301        C  0.12649810  0.19268392  0.50008379     0.03430
C302        C  0.16681118  0.20869154  0.49808536    -0.12720
C303        C  0.16753887  0.24039694  0.49175095     0.00930
C304        C  0.12657370  0.25541187  0.48681324    -0.11250
C305        C  0.08558153  0.24047729  0.49163266     0.03420
C306        C  0.08628872  0.20884764  0.49815056    -0.10670
H307        H  0.19734671  0.19601566  0.50138185     0.09020
H308        H  0.12659767  0.27883034  0.47905875     0.06540
H309        H  0.05580535  0.19632553  0.50213977     0.06390
C310        C  0.12413677  0.19424122  0.74606950     0.03430
C311        C  0.08420670  0.21085464  0.74601390    -0.12720
C312        C  0.08350406  0.24233779  0.73917185     0.00930
C313        C  0.12438372  0.25719065  0.73377609    -0.11250
C314        C  0.16538520  0.24202659  0.73813977     0.03420
C315        C  0.16455849  0.21015312  0.74371947    -0.10670
H316        H  0.05376045  0.19882297  0.75137374     0.09020
H317        H  0.12425381  0.28067570  0.72619637     0.06540
H318        H  0.19507130  0.19732144  0.74639417     0.06390
C319        C  0.12395827  0.80603583  0.00088527     0.03430
C320        C  0.16414990  0.78995427  0.99855285    -0.12720
C321        C  0.16479613  0.75817807  0.99223372     0.00930
C322        C  0.12368871  0.74322603  0.98767922    -0.11250
C323        C  0.08280922  0.75832556  0.99296470     0.03420
C324        C  0.08362704  0.79005126  0.99952169    -0.10670
H325        H  0.19457922  0.80271492  0.00207477     0.09020
H326        H  0.12342949  0.71974998  0.97980602     0.06540
H327        H  0.05320645  0.80278480  0.00336088     0.06390
C328        C  0.12651355  0.80793401  0.74852014     0.03310
C329        C  0.16675548  0.79187220  0.74626444    -0.12720
C330        C  0.16734095  0.75999570  0.74011627     0.00930
C331        C  0.12600803  0.74498445  0.73634536    -0.11250
C332        C  0.08532051  0.76017315  0.74193085     0.03420
C333        C  0.08624776  0.79189478  0.74792145    -0.10670
H334        H  0.19718798  0.80474667  0.74925072     0.09020
H335        H  0.12509731  0.72141562  0.72888523     0.06540
H336        H  0.05588574  0.80459382  0.75217044     0.06390
C337        C  0.24914519  0.69264708  0.49912089     0.03430
C338        C  0.20873138  0.70863158  0.49740618    -0.12720
C339        C  0.20787380  0.74053833  0.49192701     0.00930
C340        C  0.24886486  0.75571821  0.48765984    -0.11250
C341        C  0.03980471  0.74078554  0.49273015     0.03420
C342        C  0.03917167  0.70907846  0.49874058    -0.10670
H343        H  0.17831236  0.69577450  0.50035931     0.09020
H344        H  0.24898275  0.77926607  0.48030592     0.06540
H345        H  0.06962858  0.69666286  0.50325532     0.06390
C346        C  0.00192208  0.69444354  0.74815754     0.03430
C347        C  0.21151082  0.71032986  0.74450608    -0.12720
C348        C  0.21053529  0.74233188  0.73959531     0.00930
C349        C  0.00156838  0.75756253  0.73596324    -0.11250
C350        C  0.04227821  0.74279936  0.74213931     0.03420
C351        C  0.04152051  0.71143398  0.74951033    -0.10670
H352        H  0.18101827  0.69741796  0.74577350     0.09020
H353        H  0.00192546  0.78102185  0.72833770     0.06540
H354        H  0.07181361  0.69995286  0.75629784     0.06390
C355        C  0.25146421  0.30590678  0.99966458     0.03430
C356        C  0.21122191  0.28979139  0.99803669    -0.12720
C357        C  0.21054945  0.25800437  0.99172159     0.00930
C358        C  0.25155435  0.24296782  0.98680708    -0.11250
C359        C  0.04252672  0.25807199  0.99148305     0.03420
C360        C  0.04175214  0.28987422  0.99758927    -0.10670
H361        H  0.18071063  0.30247094  0.00164523     0.09020
H362        H  0.25160895  0.21939903  0.97920178     0.06540
H363        H  0.07218044  0.30260542  0.00128183     0.06390
C364        C  0.99927903  0.30747059  0.74680081     0.03430
C365        C  0.03956929  0.29145025  0.74539398    -0.12720
C366        C  0.04043885  0.25976938  0.73908126     0.00930
C367        C  0.99960174  0.24464932  0.73388462    -0.11250
C368        C  0.20844024  0.25964161  0.73848219     0.03420
C369        C  0.20904291  0.29141713  0.74499084    -0.10670
H370        H  0.06996062  0.30413191  0.74944353     0.09020
H371        H  0.00003198  0.22111559  0.72616578     0.06540
H372        H  0.17858060  0.30416191  0.74858725     0.06390
O373        O  0.03716529  0.49919786  0.54737376    -0.72640
O374        O  0.03483566  0.49946529  0.95699302    -0.73620
O375        O  0.03583669  0.54534586  0.00233178    -0.62240
O376        O  0.03637652  0.45325396  0.50141725    -0.70650
O377        O  0.21245160  0.45284883  0.50336954    -0.70210
O378        O  0.21191270  0.54518942  0.00379934    -0.61460
O379        O  0.21104174  0.49880547  0.95802579    -0.73970
O380        O  0.21344194  0.49911888  0.54837726    -0.72750
Cu381      Cu  0.03861615  0.49931278  0.00203894     1.04560
Cu382      Cu  0.20962712  0.49899201  0.50338918     1.04330
C383        C  0.25072061  0.49927276  0.56226322     0.93550
C384        C  0.24751608  0.49900920  0.94316551     0.92690
C385        C  0.24881116  0.55978200  0.00326247     0.84840
C386        C  0.24959244  0.43857019  0.00218371     0.91110
O387        O  0.03467591  0.50004653  0.70748313    -0.72640
O388        O  0.03549117  0.50067583  0.79787040    -0.73620
O389        O  0.03556699  0.45434174  0.75240298    -0.62240
O390        O  0.03484101  0.54631136  0.75260147    -0.70650
O391        O  0.21101062  0.54631268  0.75310090    -0.70210
O392        O  0.21159500  0.45407452  0.75387888    -0.61460
O393        O  0.21167584  0.50071792  0.79840836    -0.73970
O394        O  0.21096106  0.49948157  0.70799133    -0.72750
Cu395      Cu  0.03769526  0.50035447  0.75260804     1.04560
Cu396      Cu  0.20872216  0.50015117  0.75332375     1.04330
C397        C  0.24760873  0.49946751  0.69333214     0.93550
C398        C  0.24880123  0.50091836  0.81247556     0.92690
C399        C  0.24872765  0.43975850  0.75319231     0.84840
C400        C  0.24791188  0.56091451  0.75294481     0.91110
C401        C  0.24896472  0.50095914  0.84590780     0.00140
C402        C  0.21297604  0.48749378  0.86113812    -0.11730
C403        C  0.21183402  0.48626761  0.89265362     0.02380
C404        C  0.24698978  0.49919065  0.90972115     0.00060
C405        C  0.03288158  0.51275630  0.89447883    -0.11670
C406        C  0.03413223  0.51384057  0.86297805     0.02270
H407        H  0.18592249  0.47728304  0.84835640     0.15250
H408        H  0.05990688  0.52303226  0.90724543     0.15250
C409        C  0.07113184  0.52938955  0.84899333     0.36900
C410        C  0.17515752  0.47036376  0.90665177     0.36800
N411        N  0.10080616  0.54193177  0.83790683    -0.43440
N412        N  0.14583954  0.45746306  0.91778394    -0.43440
C413        C  0.25106945  0.49929549  0.59579459     0.00140
C414        C  0.21233036  0.49005620  0.61103455    -0.11730
C415        C  0.21024513  0.48977467  0.64254002     0.02380
C416        C  0.24762244  0.49905014  0.65977264     0.00060
C417        C  0.03644624  0.50817223  0.64452611    -0.11670
C418        C  0.03854049  0.50841015  0.61299864     0.02270
H419        H  0.18344934  0.48258639  0.59827884     0.15250
H420        H  0.06533407  0.51562089  0.65728340     0.15250
C421        C  0.07923808  0.51900911  0.59919684     0.36900
C422        C  0.16961161  0.47895242  0.65626038     0.36800
N423        N  0.11187911  0.52755339  0.58822524    -0.43440
N424        N  0.13700026  0.47017765  0.66709848    -0.43440
C425        C  0.24914421  0.40600225  0.75251489     0.00140
C426        C  0.01800315  0.39116869  0.72751033    -0.11730
C427        C  0.01795373  0.35912830  0.72529908     0.02380
C428        C  0.99949823  0.34140442  0.74871798     0.00060
C429        C  0.23080526  0.35625878  0.77386635    -0.11670
C430        C  0.23057520  0.38841904  0.77593658     0.02270
H431        H  0.03189182  0.40470309  0.70934939     0.15250
H432        H  0.21681991  0.34271028  0.79196512     0.15250
C433        C  0.21281350  0.40286976  0.80273066     0.36900
C434        C  0.03531790  0.34495879  0.69821833     0.36800
N435        N  0.19890427  0.41446826  0.82429596    -0.43440
N436        N  0.04898303  0.33351546  0.67650208    -0.43440
C437        C  0.25158171  0.33993238  0.00156915     0.00140
C438        C  0.02186686  0.35635924  0.97816645    -0.11730
C439        C  0.02123323  0.38849077  0.97791783     0.02380
C440        C  0.25014951  0.40474121  0.00148807     0.00060
C441        C  0.22977622  0.38844062  0.52490671    -0.11670
C442        C  0.23062881  0.35622534  0.52524992     0.02270
H443        H  0.03742897  0.34397723  0.95966793     0.15250
H444        H  0.21389667  0.40092501  0.54321064     0.15250
C445        C  0.21127617  0.34046630  0.55058500     0.36900
C446        C  0.04034915  0.40426380  0.95247599     0.36800
N447        N  0.19593980  0.32784116  0.57096216    -0.43440
N448        N  0.05527569  0.41692305  0.93198043    -0.43440
C449        C  0.24843398  0.59496454  0.75268263     0.00140
C450        C  0.03331903  0.60975985  0.73762793    -0.11730
C451        C  0.03512628  0.64180012  0.73574382     0.02380
C452        C  0.25249553  0.66011079  0.75048564     0.00060
C453        C  0.21822047  0.64511800  0.76629300    -0.11670
C454        C  0.21529859  0.61300097  0.76685983     0.02270
H455        H  0.05856467  0.59614416  0.72622290     0.15250
H456        H  0.19324482  0.65846647  0.77819455     0.15250
C457        C  0.17802451  0.59934706  0.78232712     0.36900
C458        C  0.06956246  0.65477031  0.71700434     0.36800
N459        N  0.14780993  0.58854972  0.79446762    -0.43440
N460        N  0.09734923  0.66489705  0.70198778    -0.43440
C461        C  0.24976135  0.65852885  0.50056725     0.00140
C462        C  0.22455427  0.64336527  0.52260472    -0.11730
C463        C  0.22388104  0.61117644  0.52399001     0.02380
C464        C  0.24885889  0.59367602  0.50311588     0.00060
C465        C  0.02430581  0.60876595  0.98130062    -0.11670
C466        C  0.02452034  0.64084235  0.97959449     0.02270
H467        H  0.20568288  0.65670441  0.53890854     0.15250
H468        H  0.04315138  0.59538374  0.96499551     0.15250
C469        C  0.04868562  0.65494807  0.95517690     0.36900
C470        C  0.19889145  0.59664288  0.54774689     0.36800
N471        N  0.06791100  0.66630229  0.93559412    -0.43440
N472        N  0.17912159  0.58492740  0.56686836    -0.43440
C473        C  0.12353462  0.16010383  0.74820715     0.00140
C474        C  0.15277108  0.14525197  0.76814556    -0.11730
C475        C  0.15436823  0.11311890  0.76970715     0.02380
C476        C  0.12581165  0.09524588  0.75141901     0.00060
C477        C  0.09614232  0.10998110  0.73188888    -0.11670
C478        C  0.09522874  0.14200209  0.72974694     0.02270
H479        H  0.17433881  0.15877937  0.78264416     0.15250
H480        H  0.07450739  0.09634290  0.71750636     0.15250
C481        C  0.06651074  0.15544945  0.70726206     0.36900
C482        C  0.18451791  0.09911272  0.79093571     0.36800
N483        N  0.04348016  0.16620385  0.68926258    -0.43440
N484        N  0.20863795  0.08789310  0.80797890    -0.43440
C485        C  0.12636729  0.90654838  0.75245432     0.00140
C486        C  0.10687957  0.89123617  0.72796256    -0.11730
C487        C  0.10703260  0.85916507  0.72633221     0.02380
C488        C  0.12621616  0.84189692  0.74984141     0.00060
C489        C  0.14557785  0.85723343  0.77447206    -0.11670
C490        C  0.14570822  0.88942703  0.77595372     0.02270
H491        H  0.09238739  0.90441308  0.70974408     0.15250
H492        H  0.16014392  0.84403997  0.79263399     0.15250
C493        C  0.16411696  0.90442015  0.80226464     0.36900
C494        C  0.08897839  0.84448025  0.69972945     0.36800
N495        N  0.17851768  0.91652870  0.82340976    -0.43440
N496        N  0.07476286  0.83262567  0.67839316    -0.43440
C497        C  0.12783075  0.99989625  0.90889140     0.00140
C498        C  0.08930918  0.00963559  0.89367577    -0.11730
C499        C  0.08770325  0.01079444  0.86218748     0.02380
C500        C  0.12521887  0.00171325  0.84501236     0.00060
C501        C  0.16387608  0.99223106  0.86022352    -0.11670
C502        C  0.16562175  0.99131125  0.89170861     0.02270
H503        H  0.06032845  0.01690140  0.90644737     0.15250
H504        H  0.19292063  0.98505334  0.84746265     0.15250
C505        C  0.20639312  0.98065418  0.90542479     0.36900
C506        C  0.04753150  0.02239618  0.84841538     0.36800
N507        N  0.23912195  0.97200084  0.91624482    -0.43440
N508        N  0.01533226  0.03180408  0.83748875    -0.43440
C509        C  0.12392142  0.99955572  0.59497433     0.00140
C510        C  0.16267481  0.99025610  0.61021963    -0.11730
C511        C  0.16480230  0.99004114  0.64172587     0.02380
C512        C  0.12744548  0.99939960  0.65893034     0.00060
C513        C  0.08863084  0.00859299  0.64369099    -0.11670
C514        C  0.08648938  0.00880523  0.61218290     0.02270
H515        H  0.19153984  0.98271273  0.59747926     0.15250
H516        H  0.05976743  0.01611781  0.65644529     0.15250
C517        C  0.04573642  0.01948451  0.59844164     0.36900
C518        C  0.20543955  0.97920713  0.65548628     0.36800
N519        N  0.01304566  0.02811130  0.58754720    -0.43440
N520        N  0.23805921  0.97043131  0.66635910    -0.43440
C521        C  0.12603831  0.15861574  0.50195102     0.00140
C522        C  0.10248156  0.14215468  0.97978431    -0.11730
C523        C  0.10230570  0.11002839  0.97941546     0.02380
C524        C  0.12613331  0.09370930  0.50153577     0.00060
C525        C  0.14979966  0.11002412  0.52371506    -0.11670
C526        C  0.14955678  0.14225798  0.52429100     0.02270
H527        H  0.08485355  0.15449955  0.96227987     0.15250
H528        H  0.16772441  0.09754095  0.54098112     0.15250
C529        C  0.17212044  0.15792667  0.54864493     0.36900
C530        C  0.07925515  0.09435362  0.95523491     0.36800
N531        N  0.19007498  0.17046474  0.56824153    -0.43440
N532        N  0.06100423  0.08180672  0.93576807    -0.43440
C533        C  0.12432065  0.84002811  0.00221248     0.00140
C534        C  0.14141508  0.85590938  0.97736159    -0.11730
C535        C  0.14134340  0.88801784  0.97669945     0.02380
C536        C  0.12431328  0.90479112  0.00137435     0.00060
C537        C  0.10694505  0.88901355  0.52622178    -0.11670
C538        C  0.10698673  0.85678277  0.52687219     0.02270
H539        H  0.15407365  0.84310409  0.95813247     0.15250
H540        H  0.09396360  0.90190211  0.54528995     0.15250
C541        C  0.09048998  0.84144437  0.55334875     0.36900
C542        C  0.15674124  0.90317427  0.94981939     0.36800
N543        N  0.07744556  0.82915549  0.57463403    -0.43440
N544        N  0.16862406  0.91510156  0.92804179    -0.43440
O545        O  0.41369518  0.99984939  0.45723137    -0.72640
O546        O  0.41129762  0.99831344  0.04743476    -0.73620
O547        O  0.41181177  0.95288597  0.00113239    -0.62240
O548        O  0.41303953  0.04523906  0.50355991    -0.70650
O549        O  0.33920404  0.04539420  0.50072272    -0.70210
O550        O  0.33784582  0.95328762  0.00229467    -0.61460
O551        O  0.33763393  0.00025296  0.04666979    -0.73970
O552        O  0.33998105  0.99862122  0.45628795    -0.72750
Cu553      Cu  0.41504029  0.99903183  0.00238005     1.04560
Cu554      Cu  0.33609253  0.99939461  0.50146780     1.04330
C555        C  0.37726429  0.99929826  0.44238234     0.93550
C556        C  0.37414034  0.99942578  0.06144366     0.92690
C557        C  0.37465934  0.93860999  0.50165603     0.84840
C558        C  0.37617414  0.05982736  0.00202507     0.91110
O559        O  0.41398600  0.00002337  0.20719975    -0.72640
O560        O  0.41261336  0.00153527  0.29753757    -0.73620
O561        O  0.41346431  0.95474382  0.25323681    -0.62240
O562        O  0.41332114  0.04688824  0.25230925    -0.70650
O563        O  0.33940731  0.04675356  0.25128910    -0.70210
O564        O  0.33949814  0.95476900  0.25160572    -0.61460
O565        O  0.33886628  0.00126015  0.29678848    -0.73970
O566        O  0.34025444  0.00026485  0.20651002    -0.72750
Cu567      Cu  0.41593608  0.00080384  0.25254378     1.04560
Cu568      Cu  0.33694785  0.00076870  0.25155401     1.04330
C569        C  0.37739035  0.99982761  0.19246385     0.93550
C570        C  0.37543448  0.00164236  0.31152909     0.92690
C571        C  0.37646989  0.94030928  0.25261542     0.84840
C572        C  0.37628464  0.06134580  0.25186726     0.91110
C573        C  0.37649780  0.19268387  0.00008384     0.03430
C574        C  0.41681085  0.20869154  0.99808538    -0.12720
C575        C  0.41753847  0.24039693  0.99175092     0.00930
C576        C  0.37657328  0.25541181  0.98681322    -0.11250
C577        C  0.33558114  0.24047721  0.99163268     0.03420
C578        C  0.33628839  0.20884756  0.99815059    -0.10670
H579        H  0.44734641  0.19601569  0.00138186     0.09020
H580        H  0.37659722  0.27883028  0.97905870     0.06540
H581        H  0.30580503  0.19632543  0.00213981     0.06390
C582        C  0.37413540  0.19424120  0.24606920     0.03430
C583        C  0.33420527  0.21085456  0.24601362    -0.12720
C584        C  0.33350254  0.24233772  0.23917163     0.00930
C585        C  0.37438216  0.25719064  0.23377584    -0.11250
C586        C  0.41538368  0.24202663  0.23813946     0.03420
C587        C  0.41455706  0.21015316  0.24371916    -0.10670
H588        H  0.30375907  0.19882284  0.25137347     0.09020
H589        H  0.37425219  0.28067570  0.22619613     0.06540
H590        H  0.44506992  0.19732152  0.24639384     0.06390
C591        C  0.37395875  0.80603585  0.50088527     0.03430
C592        C  0.41415035  0.78995425  0.49855286    -0.12720
C593        C  0.41479653  0.75817806  0.49223371     0.00930
C594        C  0.37368911  0.74322604  0.48767923    -0.11250
C595        C  0.33280963  0.75832559  0.49296472     0.03420
C596        C  0.33362749  0.79005130  0.49952169    -0.10670
H597        H  0.44457969  0.80271488  0.50207479     0.09020
H598        H  0.37342986  0.71974999  0.47980603     0.06540
H599        H  0.30320692  0.80278487  0.50336088     0.06390
C600        C  0.37651227  0.80793401  0.24852036     0.03310
C601        C  0.41675416  0.79187216  0.24626462    -0.12720
C602        C  0.41733955  0.75999568  0.24011639     0.00930
C603        C  0.37600660  0.74498448  0.23634549    -0.11250
C604        C  0.33531911  0.76017322  0.24193101     0.03420
C605        C  0.33624644  0.79189483  0.24792165    -0.10670
H606        H  0.44718670  0.80474659  0.24925091     0.09020
H607        H  0.37509586  0.72141565  0.22888533     0.06540
H608        H  0.30588445  0.80459390  0.25217066     0.06390
C609        C  0.49914484  0.69264700  0.99912083     0.03430
C610        C  0.45873102  0.70863148  0.99740608    -0.12720
C611        C  0.45787344  0.74053823  0.99192688     0.00930
C612        C  0.49886449  0.75571810  0.98765968    -0.11250
C613        C  0.28980434  0.74078553  0.99273013     0.03420
C614        C  0.28917130  0.70907845  0.99874056    -0.10670
H615        H  0.42831200  0.69577440  0.00035922     0.09020
H616        H  0.49898238  0.77926594  0.98030571     0.06540
H617        H  0.31962820  0.69666285  0.00325530     0.06390
C618        C  0.25192067  0.69444361  0.24815743     0.03430
C619        C  0.46150942  0.71032981  0.24450610    -0.12720
C620        C  0.46053386  0.74233183  0.23959533     0.00930
C621        C  0.25156694  0.75756267  0.23596339    -0.11250
C622        C  0.29227677  0.74279946  0.24213943     0.03420
C623        C  0.29151906  0.71143407  0.24951035    -0.10670
H624        H  0.43101687  0.69741790  0.24577357     0.09020
H625        H  0.25192405  0.78102202  0.22833794     0.06540
H626        H  0.32181214  0.69995294  0.25629788     0.06390
C627        C  0.50146461  0.30590685  0.49966460     0.03430
C628        C  0.46122232  0.28979146  0.49803671    -0.12720
C629        C  0.46054987  0.25800446  0.49172156     0.00930
C630        C  0.50155477  0.24296793  0.48680700    -0.11250
C631        C  0.29252719  0.25807200  0.49148313     0.03420
C632        C  0.29175260  0.28987423  0.49758935    -0.10670
H633        H  0.43071103  0.30247100  0.50164527     0.09020
H634        H  0.50160936  0.21939915  0.47920164     0.06540
H635        H  0.32218090  0.30260543  0.50128192     0.06390
C636        C  0.24927756  0.30747053  0.24680067     0.03430
C637        C  0.28956777  0.29145015  0.24539385    -0.12720
C638        C  0.29043729  0.25976928  0.23908114     0.00930
C639        C  0.24960014  0.24464922  0.23388459    -0.11250
C640        C  0.45843868  0.25964170  0.23848186     0.03420
C641        C  0.45904135  0.29141722  0.24499054    -0.10670
H642        H  0.31995912  0.30413179  0.24944340     0.09020
H643        H  0.25003034  0.22111547  0.22616580     0.06540
H644        H  0.42857903  0.30416201  0.24858694     0.06390
O645        O  0.28716505  0.49919782  0.04737379    -0.72640
O646        O  0.28483565  0.49946529  0.45699296    -0.73620
O647        O  0.28583683  0.54534586  0.50233171    -0.62240
O648        O  0.28637641  0.45325391  0.00141728    -0.70650
O649        O  0.46245145  0.45284881  0.00336952    -0.70210
O650        O  0.46191283  0.54518946  0.50379942    -0.61460
O651        O  0.46104171  0.49880551  0.45802588    -0.73970
O652        O  0.46344170  0.49911884  0.04837725    -0.72750
Cu653      Cu  0.28861629  0.49931279  0.50203888     1.04560
Cu654      Cu  0.45962700  0.49899198  0.00338916     1.04330
C655        C  0.50072033  0.49927271  0.06226326     0.93550
C656        C  0.49751600  0.49900922  0.44316555     0.92690
C657        C  0.49881130  0.55978202  0.50326250     0.84840
C658        C  0.49959255  0.43857024  0.50218375     0.91110
O659        O  0.28467535  0.50004653  0.20748312    -0.72640
O660        O  0.28549067  0.50067586  0.29787036    -0.73620
O661        O  0.28556645  0.45434172  0.25240296    -0.62240
O662        O  0.28484036  0.54631143  0.25260142    -0.70650
O663        O  0.46100999  0.54631265  0.25310094    -0.70210
O664        O  0.46159442  0.45407456  0.25387893    -0.61460
O665        O  0.46167533  0.50071794  0.29840842    -0.73970
O666        O  0.46096050  0.49948157  0.20799135    -0.72750
Cu667      Cu  0.28769470  0.50035449  0.25260801     1.04560
Cu668      Cu  0.45872159  0.50015118  0.25332379     1.04330
C669        C  0.49760818  0.49946752  0.19333218     0.93550
C670        C  0.49880074  0.50091838  0.31247559     0.92690
C671        C  0.49872704  0.43975853  0.25319235     0.84840
C672        C  0.49791121  0.56091451  0.25294485     0.91110
C673        C  0.49896431  0.50095917  0.34590784     0.00140
C674        C  0.46297565  0.48749385  0.36113821    -0.11730
C675        C  0.46183374  0.48626768  0.39265371     0.02380
C676        C  0.49698959  0.49919067  0.40972119     0.00060
C677        C  0.28288140  0.51275625  0.39447877    -0.11670
C678        C  0.28413194  0.51384053  0.36297799     0.02270
H679        H  0.43592204  0.47728315  0.34835653     0.15250
H680        H  0.30990677  0.52303217  0.40724534     0.15250
C681        C  0.32113159  0.52938944  0.34899324     0.36900
C682        C  0.42515726  0.47036386  0.40665191     0.36800
N683        N  0.35080595  0.54193159  0.33790672    -0.43440
N684        N  0.39583928  0.45746319  0.41778413    -0.43440
C685        C  0.50106910  0.49929546  0.09579463     0.00140
C686        C  0.46232998  0.49005617  0.11103455    -0.11730
C687        C  0.46024467  0.48977465  0.14254003     0.02380
C688        C  0.49762193  0.49905015  0.15977267     0.00060
C689        C  0.28644577  0.50817221  0.14452612    -0.11670
C690        C  0.28854010  0.50841012  0.11299866     0.02270
H691        H  0.43344899  0.48258633  0.09827882     0.15250
H692        H  0.31533357  0.51562088  0.15728344     0.15250
C693        C  0.32923771  0.51900908  0.09919690     0.36900
C694        C  0.41961115  0.47895239  0.15626036     0.36800
N695        N  0.36187877  0.52755336  0.08822533    -0.43440
N696        N  0.38699978  0.47017760  0.16709843    -0.43440
C697        C  0.49914350  0.40600228  0.25251490     0.00140
C698        C  0.26800255  0.39116862  0.22751038    -0.11730
C699        C  0.26795279  0.35912822  0.22529906     0.02380
C700        C  0.24949691  0.34140437  0.24871785     0.00060
C701        C  0.48080402  0.35625885  0.27386620    -0.11670
C702        C  0.48057430  0.38841910  0.27593654     0.02270
H703        H  0.28189147  0.40470298  0.20934950     0.15250
H704        H  0.46681855  0.34271035  0.29196494     0.15250
C705        C  0.46281275  0.40286982  0.30273066     0.36900
C706        C  0.28531703  0.34495869  0.19821834     0.36800
N707        N  0.44890365  0.41446833  0.32429600    -0.43440
N708        N  0.29898222  0.33351534  0.17650212    -0.43440
C709        C  0.50158207  0.33993245  0.50156919     0.00140
C710        C  0.27186722  0.35635926  0.47816650    -0.11730
C711        C  0.27123348  0.38849079  0.47791785     0.02380
C712        C  0.50014966  0.40474126  0.50148810     0.00060
C713        C  0.47977599  0.38844061  0.02490671    -0.11670
C714        C  0.48062849  0.35622533  0.02524989     0.02270
H715        H  0.28742935  0.34397725  0.45966799     0.15250
H716        H  0.46389649  0.40092501  0.04321066     0.15250
C717        C  0.46127585  0.34046629  0.05058497     0.36900
C718        C  0.29034933  0.40426382  0.45247599     0.36800
N719        N  0.44593947  0.32784115  0.07096212    -0.43440
N720        N  0.30527580  0.41692307  0.43198041    -0.43440
C721        C  0.49843318  0.59496454  0.25268267     0.00140
C722        C  0.28331811  0.60975997  0.23762788    -0.11730
C723        C  0.28512514  0.64180025  0.23574371     0.02380
C724        C  0.50249431  0.66011077  0.25048559     0.00060
C725        C  0.46821937  0.64511792  0.26629299    -0.11670
C726        C  0.46529769  0.61300089  0.26685986     0.02270
H727        H  0.30856389  0.59614434  0.22622293     0.15250
H728        H  0.44324365  0.65846633  0.27819453     0.15250
C729        C  0.42802371  0.59934690  0.28232720     0.36900
C730        C  0.31956129  0.65477051  0.21700427     0.36800
N731        N  0.39780920  0.58854950  0.29446772    -0.43440
N732        N  0.34734803  0.66489731  0.20198772    -0.43440
C733        C  0.49976106  0.65852878  0.00056721     0.00140
C734        C  0.47455403  0.64336520  0.02260470    -0.11730
C735        C  0.47388087  0.61117637  0.02399004     0.02380
C736        C  0.49885876  0.59367596  0.00311592     0.00060
C737        C  0.27430602  0.60876596  0.48130061    -0.11670
C738        C  0.27452064  0.64084236  0.47959452     0.02270
H739        H  0.45568261  0.65670433  0.03890852     0.15250
H740        H  0.29315156  0.59538374  0.46499549     0.15250
C741        C  0.29868593  0.65494808  0.45517693     0.36900
C742        C  0.44889133  0.59664281  0.04774693     0.36800
N743        N  0.31791132  0.66630229  0.43559415    -0.43440
N744        N  0.42912152  0.58492732  0.06686842    -0.43440
C745        C  0.37353338  0.16010382  0.24820687     0.00140
C746        C  0.40276990  0.14525201  0.26814529    -0.11730
C747        C  0.40436714  0.11311895  0.26970691     0.02380
C748        C  0.37581060  0.09524588  0.25141880     0.00060
C749        C  0.34614124  0.10998103  0.23188865    -0.11670
C750        C  0.34522758  0.14200202  0.22974666     0.02270
H751        H  0.42433759  0.15877947  0.28264387     0.15250
H752        H  0.32450635  0.09634278  0.21750614     0.15250
C753        C  0.31650957  0.15544932  0.20726175     0.36900
C754        C  0.43451689  0.09911284  0.29093548     0.36800
N755        N  0.29347899  0.16620367  0.18926224    -0.43440
N756        N  0.45863699  0.08789327  0.30797866    -0.43440
C757        C  0.37636628  0.90654838  0.25245450     0.00140
C758        C  0.35687852  0.89123618  0.22796275    -0.11730
C759        C  0.35703147  0.85916508  0.22633241     0.02380
C760        C  0.37621498  0.84189693  0.24984163     0.00060
C761        C  0.39557673  0.85723342  0.27447226    -0.11670
C762        C  0.39570720  0.88942703  0.27595390     0.02270
H763        H  0.34238637  0.90441310  0.20974427     0.15250
H764        H  0.41014279  0.84403995  0.29263419     0.15250
C765        C  0.41411603  0.90442014  0.30226479     0.36900
C766        C  0.33897724  0.84448028  0.19972965     0.36800
N767        N  0.42851682  0.91652869  0.32340989    -0.43440
N768        N  0.32476170  0.83262570  0.17839337    -0.43440
C769        C  0.37783093  0.99989626  0.40889145     0.00140
C770        C  0.33930921  0.00963565  0.39367601    -0.11730
C771        C  0.33770296  0.01079452  0.36218772     0.02380
C772        C  0.37521838  0.00171329  0.34501242     0.00060
C773        C  0.41387570  0.99223099  0.36022340    -0.11670
C774        C  0.41562170  0.99131118  0.39170848     0.02270
H775        H  0.31032865  0.01690150  0.40644776     0.15250
H776        H  0.44292007  0.98505319  0.34746239     0.15250
C777        C  0.45639317  0.98065401  0.40542444     0.36900
C778        C  0.29753112  0.02239632  0.34841579     0.36800
N779        N  0.48912207  0.97200058  0.41624431    -0.43440
N780        N  0.26533179  0.03180427  0.33748931    -0.43440
C781        C  0.37392068  0.99955543  0.09497437     0.00140
C782        C  0.41267392  0.99025570  0.11021977    -0.11730
C783        C  0.41480121  0.99004070  0.14172601     0.02380
C784        C  0.37744436  0.99939928  0.15893038     0.00060
C785        C  0.33862982  0.00859270  0.14369095    -0.11670
C786        C  0.33648853  0.00880493  0.11218284     0.02270
H787        H  0.44153900  0.98271228  0.09747948     0.15250
H788        H  0.30976637  0.01611757  0.15644518     0.15250
C789        C  0.29573564  0.01948417  0.09844146     0.36900
C790        C  0.45543829  0.97920650  0.15548651     0.36800
N791        N  0.26304493  0.02811092  0.08754693    -0.43440
N792        N  0.48805780  0.97043052  0.16635940    -0.43440
C793        C  0.37603813  0.15861569  0.00195109     0.00140
C794        C  0.35248241  0.14215466  0.47978441    -0.11730
C795        C  0.35230686  0.11002837  0.47941553     0.02380
C796        C  0.37613349  0.09370925  0.00153582     0.00060
C797        C  0.39979978  0.11002412  0.02371510    -0.11670
C798        C  0.39955672  0.14225798  0.02429106     0.02270
H799        H  0.33485431  0.15449948  0.46227999     0.15250
H800        H  0.41772460  0.09754099  0.04098115     0.15250
C801        C  0.42212034  0.15792672  0.04864497     0.36900
C802        C  0.32925642  0.09435353  0.45523497     0.36800
N803        N  0.44007484  0.17046483  0.06824155    -0.43440
N804        N  0.31100559  0.08180657  0.43576812    -0.43440
C805        C  0.37432127  0.84002813  0.50221248     0.00140
C806        C  0.39141586  0.85590936  0.47736161    -0.11730
C807        C  0.39134452  0.88801782  0.47669952     0.02380
C808        C  0.37431458  0.90479114  0.50137444     0.00060
C809        C  0.35694534  0.88901350  0.02622179    -0.11670
C810        C  0.35698681  0.85678272  0.02687215     0.02270
H811        H  0.40407432  0.84310404  0.45813248     0.15250
H812        H  0.34396402  0.90190207  0.04528999     0.15250
C813        C  0.34049006  0.84144433  0.05334870     0.36900
C814        C  0.40674248  0.90317420  0.44981947     0.36800
N815        N  0.32744564  0.82915545  0.07463400    -0.43440
N816        N  0.41862539  0.91510144  0.42804187    -0.43440
O817        O  0.41369510  0.99984935  0.95723146    -0.72640
O818        O  0.41129806  0.99831355  0.54743469    -0.73620
O819        O  0.41181201  0.95288604  0.50113234    -0.62240
O820        O  0.41303925  0.04523899  0.00356002    -0.70650
O821        O  0.33920377  0.04539412  0.00072270    -0.70210
O822        O  0.33784607  0.95328770  0.50229474    -0.61460
O823        O  0.33763436  0.00025308  0.54666983    -0.73970
O824        O  0.33998098  0.99862116  0.95628791    -0.72750
Cu825      Cu  0.41504055  0.99903190  0.50237996     1.04560
Cu826      Cu  0.33609227  0.99939453  0.00146776     1.04330
C827        C  0.37726428  0.99929820  0.94238237     0.93550
C828        C  0.37414083  0.99942594  0.56144365     0.92690
C829        C  0.37465910  0.93860992  0.00165602     0.84840
C830        C  0.37617442  0.05982743  0.50202502     0.91110
O831        O  0.41398667  0.00002352  0.70719978    -0.72640
O832        O  0.41261384  0.00153519  0.79753762    -0.73620
O833        O  0.41346489  0.95474385  0.75323674    -0.62240
O834        O  0.41332175  0.04688824  0.75230942    -0.70650
O835        O  0.33940792  0.04675360  0.75128920    -0.70210
O836        O  0.33949872  0.95476901  0.75160556    -0.61460
O837        O  0.33886676  0.00126005  0.79678844    -0.73970
O838        O  0.34025511  0.00026501  0.70651000    -0.72750
Cu839      Cu  0.41593666  0.00080387  0.75254382     1.04560
Cu840      Cu  0.33694844  0.00076874  0.75155398     1.04330
C841        C  0.37739104  0.99982781  0.69246385     0.93550
C842        C  0.37543492  0.00164225  0.81152910     0.92690
C843        C  0.37647048  0.94030930  0.75261529     0.84840
C844        C  0.37628527  0.06134583  0.75186744     0.91110
C845        C  0.37649818  0.19268393  0.50008382     0.03430
C846        C  0.41681124  0.20869158  0.49808537    -0.12720
C847        C  0.41753889  0.24039697  0.49175093     0.00930
C848        C  0.37657371  0.25541187  0.48681323    -0.11250
C849        C  0.33558155  0.24047728  0.49163267     0.03420
C850        C  0.33628878  0.20884762  0.49815058    -0.10670
H851        H  0.44734678  0.19601571  0.50138186     0.09020
H852        H  0.37659766  0.27883034  0.47905873     0.06540
H853        H  0.30580542  0.19632550  0.50213979     0.06390
C854        C  0.37413669  0.19424123  0.74606951     0.03430
C855        C  0.33420665  0.21085467  0.74601391    -0.12720
C856        C  0.33350404  0.24233781  0.73917186     0.00930
C857        C  0.37438371  0.25719066  0.73377611    -0.11250
C858        C  0.41538519  0.24202658  0.73813979     0.03420
C859        C  0.41455844  0.21015311  0.74371948    -0.10670
H860        H  0.30376039  0.19882302  0.75137377     0.09020
H861        H  0.37425382  0.28067571  0.72619638     0.06540
H862        H  0.44507124  0.19732141  0.74639418     0.06390
C863        C  0.37395843  0.80603579  0.00088521     0.03430
C864        C  0.41415001  0.78995418  0.99855280    -0.12720
C865        C  0.41479617  0.75817799  0.99223365     0.00930
C866        C  0.37368873  0.74322598  0.98767919    -0.11250
C867        C  0.33280927  0.75832554  0.99296468     0.03420
C868        C  0.33362715  0.79005126  0.99952164    -0.10670
H869        H  0.44457936  0.80271480  0.00207473     0.09020
H870        H  0.37342947  0.71974992  0.97980600     0.06540
H871        H  0.30320660  0.80278484  0.00336083     0.06390
C872        C  0.37651348  0.80793403  0.74852011     0.03310
C873        C  0.41675544  0.79187224  0.74626441    -0.12720
C874        C  0.41734094  0.75999573  0.74011626     0.00930
C875        C  0.37600802  0.74498447  0.73634535    -0.11250
C876        C  0.33532049  0.76017316  0.74193084     0.03420
C877        C  0.33624772  0.79189478  0.74792144    -0.10670
H878        H  0.44718793  0.80474672  0.74925069     0.09020
H879        H  0.37509732  0.72141564  0.72888522     0.06540
H880        H  0.30588569  0.80459380  0.75217045     0.06390
C881        C  0.49914518  0.69264706  0.49912088     0.03430
C882        C  0.45873137  0.70863156  0.49740614    -0.12720
C883        C  0.45787381  0.74053830  0.49192695     0.00930
C884        C  0.49886487  0.75571817  0.48765978    -0.11250
C885        C  0.28980472  0.74078556  0.49273015     0.03420
C886        C  0.28917169  0.70907847  0.49874058    -0.10670
H887        H  0.42831234  0.69577448  0.50035928     0.09020
H888        H  0.49898276  0.77926602  0.48030583     0.06540
H889        H  0.31962859  0.69666288  0.50325531     0.06390
C890        C  0.25192208  0.69444354  0.74815753     0.03430
C891        C  0.46151082  0.71032989  0.74450608    -0.12720
C892        C  0.46053529  0.74233191  0.73959533     0.00930
C893        C  0.25156837  0.75756252  0.73596321    -0.11250
C894        C  0.29227820  0.74279935  0.74213929     0.03420
C895        C  0.29152051  0.71143398  0.74951032    -0.10670
H896        H  0.43101827  0.69741799  0.74577349     0.09020
H897        H  0.25192545  0.78102184  0.72833765     0.06540
H898        H  0.32181360  0.69995287  0.75629783     0.06390
C899        C  0.50146417  0.30590683  0.99966454     0.03430
C900        C  0.46122189  0.28979144  0.99803667    -0.12720
C901        C  0.46054944  0.25800443  0.99172153     0.00930
C902        C  0.50155433  0.24296791  0.98680694    -0.11250
C903        C  0.29252677  0.25807193  0.99148314     0.03420
C904        C  0.29175220  0.28987416  0.99758934    -0.10670
H905        H  0.43071060  0.30247097  0.00164524     0.09020
H906        H  0.50160893  0.21939913  0.97920158     0.06540
H907        H  0.32218050  0.30260536  0.00128192     0.06390
C908        C  0.24927902  0.30747061  0.74680080     0.03430
C909        C  0.28956927  0.29145027  0.74539397    -0.12720
C910        C  0.29043884  0.25976940  0.73908125     0.00930
C911        C  0.24960173  0.24464935  0.73388459    -0.11250
C912        C  0.45844023  0.25964159  0.73848222     0.03420
C913        C  0.45904292  0.29141711  0.74499085    -0.10670
H914        H  0.31996061  0.30413193  0.74944353     0.09020
H915        H  0.25003198  0.22111562  0.72616574     0.06540
H916        H  0.42858061  0.30416190  0.74858727     0.06390
O917        O  0.28716529  0.49919786  0.54737375    -0.72640
O918        O  0.28483567  0.49946527  0.95699301    -0.73620
O919        O  0.28583670  0.54534584  0.00233176    -0.62240
O920        O  0.28637652  0.45325396  0.50141725    -0.70650
O921        O  0.46245160  0.45284883  0.50336957    -0.70210
O922        O  0.46191273  0.54518942  0.00379938    -0.61460
O923        O  0.46104175  0.49880549  0.95802583    -0.73970
O924        O  0.46344194  0.49911887  0.54837729    -0.72750
Cu925      Cu  0.28861618  0.49931276  0.00203893     1.04560
Cu926      Cu  0.45962712  0.49899201  0.50338922     1.04330
C927        C  0.50072061  0.49927275  0.56226325     0.93550
C928        C  0.49751609  0.49900920  0.94316555     0.92690
C929        C  0.49881120  0.55978198  0.00326251     0.84840
C930        C  0.49959240  0.43857021  0.00218374     0.91110
O931        O  0.28467589  0.50004654  0.70748312    -0.72640
O932        O  0.28549116  0.50067583  0.79787039    -0.73620
O933        O  0.28556696  0.45434175  0.75240297    -0.62240
O934        O  0.28484100  0.54631137  0.75260146    -0.70650
O935        O  0.46101063  0.54631269  0.75310093    -0.70210
O936        O  0.46159502  0.45407451  0.75387890    -0.61460
O937        O  0.46167586  0.50071792  0.79840840    -0.73970
O938        O  0.46096107  0.49948157  0.70799136    -0.72750
Cu939      Cu  0.28769524  0.50035448  0.75260803     1.04560
Cu940      Cu  0.45872217  0.50015117  0.75332378     1.04330
C941        C  0.49760874  0.49946751  0.69333217     0.93550
C942        C  0.49880125  0.50091836  0.81247559     0.92690
C943        C  0.49872767  0.43975850  0.75319234     0.84840
C944        C  0.49791188  0.56091452  0.75294483     0.91110
C945        C  0.49896474  0.50095914  0.84590784     0.00140
C946        C  0.46297606  0.48749377  0.86113815    -0.11730
C947        C  0.46183404  0.48626761  0.89265365     0.02380
C948        C  0.49698979  0.49919065  0.90972119     0.00060
C949        C  0.28288160  0.51275627  0.89447882    -0.11670
C950        C  0.28413223  0.51384056  0.86297804     0.02270
H951        H  0.43592251  0.47728303  0.84835643     0.15250
H952        H  0.30990690  0.52303222  0.90724542     0.15250
C953        C  0.32113185  0.52938953  0.84899332     0.36900
C954        C  0.42515754  0.47036376  0.90665180     0.36800
N955        N  0.35080618  0.54193174  0.83790682    -0.43440
N956        N  0.39583956  0.45746305  0.91778398    -0.43440
C957        C  0.50106946  0.49929549  0.59579462     0.00140
C958        C  0.46233037  0.49005621  0.61103458    -0.11730
C959        C  0.46024513  0.48977467  0.64254005     0.02380
C960        C  0.49762244  0.49905015  0.65977267     0.00060
C961        C  0.28644622  0.50817224  0.64452610    -0.11670
C962        C  0.28854048  0.50841016  0.61299863     0.02270
H963        H  0.43344935  0.48258639  0.59827888     0.15250
H964        H  0.31533405  0.51562090  0.65728339     0.15250
C965        C  0.32923806  0.51900911  0.59919683     0.36900
C966        C  0.41961162  0.47895243  0.65626042     0.36800
N967        N  0.36187910  0.52755339  0.58822523    -0.43440
N968        N  0.38700026  0.47017766  0.66709851    -0.43440
C969        C  0.49914423  0.40600224  0.75251491     0.00140
C970        C  0.26800318  0.39116871  0.72751034    -0.11730
C971        C  0.26795376  0.35912831  0.72529909     0.02380
C972        C  0.24949821  0.34140444  0.74871797     0.00060
C973        C  0.48080529  0.35625877  0.77386636    -0.11670
C974        C  0.48057523  0.38841903  0.77593660     0.02270
H975        H  0.28189189  0.40470311  0.70934941     0.15250
H976        H  0.46681993  0.34271026  0.79196513     0.15250
C977        C  0.46281353  0.40286975  0.80273068     0.36900
C978        C  0.28531799  0.34495881  0.69821835     0.36800
N979        N  0.44890430  0.41446825  0.82429598    -0.43440
N980        N  0.29898316  0.33351548  0.67650212    -0.43440
C981        C  0.50158166  0.33993243  0.00156913     0.00140
C982        C  0.27186694  0.35635919  0.97816648    -0.11730
C983        C  0.27123330  0.38849072  0.97791784     0.02380
C984        C  0.50014945  0.40474124  0.00148808     0.00060
C985        C  0.47977623  0.38844062  0.52490672    -0.11670
C986        C  0.48062882  0.35622535  0.52524993     0.02270
H987        H  0.28742905  0.34397717  0.95966796     0.15250
H988        H  0.46389668  0.40092501  0.54321066     0.15250
C989        C  0.46127619  0.34046629  0.55058500     0.36900
C990        C  0.29034922  0.40426375  0.95247600     0.36800
N991        N  0.44593981  0.32784115  0.57096215    -0.43440
N992        N  0.30527576  0.41692299  0.93198043    -0.43440
C993        C  0.49843398  0.59496456  0.75268264     0.00140
C994        C  0.28331903  0.60975985  0.73762792    -0.11730
C995        C  0.28512628  0.64180012  0.73574381     0.02380
C996        C  0.50249551  0.66011081  0.75048564     0.00060
C997        C  0.46822045  0.64511802  0.76629299    -0.11670
C998        C  0.46529857  0.61300099  0.76685983     0.02270
H999        H  0.30856466  0.59614416  0.72622290     0.15250
H1000       H  0.44324478  0.65846648  0.77819454     0.15250
C1001       C  0.42802449  0.59934708  0.78232712     0.36900
C1002       C  0.31956246  0.65477031  0.71700434     0.36800
N1003       N  0.39780990  0.58854974  0.79446761    -0.43440
N1004       N  0.34734923  0.66489705  0.70198778    -0.43440
C1005       C  0.49976134  0.65852883  0.50056724     0.00140
C1006       C  0.47455427  0.64336526  0.52260473    -0.11730
C1007       C  0.47388104  0.61117643  0.52399004     0.02380
C1008       C  0.49885888  0.59367601  0.50311590     0.00060
C1009       C  0.27430581  0.60876594  0.98130062    -0.11670
C1010       C  0.27452035  0.64084234  0.97959450     0.02270
H1011       H  0.45568288  0.65670440  0.53890855     0.15250
H1012       H  0.29315139  0.59538373  0.96499550     0.15250
C1013       C  0.29868563  0.65494807  0.95517691     0.36900
C1014       C  0.44889146  0.59664288  0.54774692     0.36800
N1015       N  0.31791101  0.66630229  0.93559413    -0.43440
N1016       N  0.42912162  0.58492741  0.56686840    -0.43440
C1017       C  0.37353448  0.16010385  0.74820716     0.00140
C1018       C  0.40277088  0.14525196  0.76814560    -0.11730
C1019       C  0.40436792  0.11311890  0.76970722     0.02380
C1020       C  0.37581130  0.09524590  0.75141908     0.00060
C1021       C  0.34614202  0.10998114  0.73188893    -0.11670
C1022       C  0.34522855  0.14200213  0.72974696     0.02270
H1023       H  0.42433864  0.15877935  0.78264418     0.15250
H1024       H  0.32450706  0.09634296  0.71750642     0.15250
C1025       C  0.31651059  0.15544951  0.70726207     0.36900
C1026       C  0.43451754  0.09911269  0.79093581     0.36800
N1027       N  0.29348005  0.16620393  0.68926257    -0.43440
N1028       N  0.45863752  0.08789305  0.80797902    -0.43440
C1029       C  0.37636693  0.90654840  0.75245435     0.00140
C1030       C  0.35687914  0.89123618  0.72796263    -0.11730
C1031       C  0.35703228  0.85916508  0.72633224     0.02380
C1032       C  0.37621604  0.84189694  0.74984139     0.00060
C1033       C  0.39557778  0.85723347  0.77447201    -0.11670
C1034       C  0.39570804  0.88942707  0.77595369     0.02270
H1035       H  0.34238682  0.90441308  0.70974419     0.15250
H1036       H  0.41014399  0.84404001  0.79263390     0.15250
C1037       C  0.41411686  0.90442020  0.80226458     0.36900
C1038       C  0.33897798  0.84448026  0.69972951     0.36800
N1039       N  0.42851764  0.91652875  0.82340968    -0.43440
N1040       N  0.32476238  0.83262567  0.67839325    -0.43440
C1041       C  0.37783104  0.99989618  0.90889147     0.00140
C1042       C  0.33930930  0.00963541  0.89367596    -0.11730
C1043       C  0.33770315  0.01079425  0.86218766     0.02380
C1044       C  0.37521871  0.00171318  0.84501243     0.00060
C1045       C  0.41387607  0.99223107  0.86022347    -0.11670
C1046       C  0.41562195  0.99131125  0.89170856     0.02270
H1047       H  0.31032863  0.01690115  0.90644765     0.15250
H1048       H  0.44292057  0.98505344  0.84746252     0.15250
C1049       C  0.45639346  0.98065425  0.90542459     0.36900
C1050       C  0.29753124  0.02239587  0.84841568     0.36800
N1051       N  0.48912241  0.97200096  0.91624451    -0.43440
N1052       N  0.26533187  0.03180368  0.83748914    -0.43440
C1053       C  0.37392128  0.99955568  0.59497436     0.00140
C1054       C  0.41267463  0.99025612  0.61021973    -0.11730
C1055       C  0.41480199  0.99004117  0.64172598     0.02380
C1056       C  0.37744508  0.99939958  0.65893038     0.00060
C1057       C  0.33863046  0.00859288  0.64369096    -0.11670
C1058       C  0.33648913  0.00880511  0.61218286     0.02270
H1059       H  0.44153974  0.98271280  0.59747942     0.15250
H1060       H  0.30976697  0.01611766  0.65644521     0.15250
C1061       C  0.29573619  0.01948432  0.59844150     0.36900
C1062       C  0.45543926  0.97920726  0.65548644     0.36800
N1063       N  0.26304546  0.02811106  0.58754699    -0.43440
N1064       N  0.48805893  0.97043152  0.66635930    -0.43440
C1065       C  0.37603848  0.15861575  0.50195106     0.00140
C1066       C  0.35248205  0.14215459  0.97978446    -0.11730
C1067       C  0.35230653  0.11002829  0.97941558     0.02380
C1068       C  0.37613379  0.09370931  0.50153578     0.00060
C1069       C  0.39980007  0.11002417  0.52371507    -0.11670
C1070       C  0.39955703  0.14225803  0.52429104     0.02270
H1071       H  0.33485392  0.15449939  0.96228004     0.15250
H1072       H  0.41772485  0.09754103  0.54098113     0.15250
C1073       C  0.42212062  0.15792676  0.54864497     0.36900
C1074       C  0.32925609  0.09435344  0.95523503     0.36800
N1075       N  0.44007510  0.17046486  0.56824157    -0.43440
N1076       N  0.31100526  0.08180647  0.93576819    -0.43440
C1077       C  0.37432097  0.84002807  0.00221243     0.00140
C1078       C  0.39141561  0.85590930  0.97736157    -0.11730
C1079       C  0.39134431  0.88801777  0.97669950     0.02380
C1080       C  0.37431435  0.90479108  0.00137442     0.00060
C1081       C  0.35694561  0.88901357  0.52622182    -0.11670
C1082       C  0.35698710  0.85678278  0.52687219     0.02270
H1083       H  0.40407409  0.84310399  0.95813245     0.15250
H1084       H  0.34396430  0.90190214  0.54529002     0.15250
C1085       C  0.34049037  0.84144440  0.55334876     0.36900
C1086       C  0.40674235  0.90317416  0.94981948     0.36800
N1087       N  0.32744596  0.82915552  0.57463406    -0.43440
N1088       N  0.41862534  0.91510143  0.92804191    -0.43440
O1089       O  0.66369416  0.99984937  0.45723120    -0.72640
O1090       O  0.66129577  0.99831346  0.04743491    -0.73620
O1091       O  0.66181051  0.95288601  0.00113255    -0.62240
O1092       O  0.66303902  0.04523903  0.50355976    -0.70650
O1093       O  0.58920351  0.04539421  0.50072285    -0.70210
O1094       O  0.58784455  0.95328763  0.00229447    -0.61460
O1095       O  0.58763208  0.00025301  0.04666959    -0.73970
O1096       O  0.58998003  0.99862119  0.45628810    -0.72750
Cu1097     Cu  0.66503901  0.99903184  0.00238022     1.04560
Cu1098     Cu  0.58609197  0.99939460  0.50146796     1.04330
C1099       C  0.62726313  0.99929823  0.44238233     0.93550
C1100       C  0.62413834  0.99942583  0.06144363     0.92690
C1101       C  0.62465881  0.93860998  0.50165604     0.84840
C1102       C  0.62617297  0.05982739  0.00202505     0.91110
O1103       O  0.66398329  0.00002348  0.20719970    -0.72640
O1104       O  0.66261096  0.00153522  0.29753747    -0.73620
O1105       O  0.66346175  0.95474390  0.25323664    -0.62240
O1106       O  0.66331872  0.04688822  0.25230926    -0.70650
O1107       O  0.58940489  0.04675370  0.25128921    -0.70210
O1108       O  0.58949557  0.95476902  0.25160562    -0.61460
O1109       O  0.58886388  0.00126013  0.29678852    -0.73970
O1110       O  0.59025172  0.00026502  0.20651000    -0.72750
Cu1111     Cu  0.66593353  0.00080388  0.25254369     1.04560
Cu1112     Cu  0.58694530  0.00076879  0.25155402     1.04330
C1113       C  0.62738762  0.99982775  0.19246381     0.93550
C1114       C  0.62543214  0.00164229  0.31152906     0.92690
C1115       C  0.62646737  0.94030933  0.25261527     0.84840
C1116       C  0.62628230  0.06134587  0.25186736     0.91110
C1117       C  0.62649764  0.19268391  0.00008369     0.03430
C1118       C  0.66681073  0.20869153  0.99808526    -0.12720
C1119       C  0.66753842  0.24039694  0.99175085     0.00930
C1120       C  0.62657326  0.25541186  0.98681313    -0.11250
C1121       C  0.58558110  0.24047728  0.99163256     0.03420
C1122       C  0.58628828  0.20884764  0.99815046    -0.10670
H1123       H  0.69734626  0.19601564  0.00138174     0.09020
H1124       H  0.62659724  0.27883034  0.97905864     0.06540
H1125       H  0.55580490  0.19632554  0.00213969     0.06390
C1126       C  0.62413497  0.19424128  0.24606921     0.03430
C1127       C  0.58420498  0.21085477  0.24601365    -0.12720
C1128       C  0.58350243  0.24233790  0.23917159     0.00930
C1129       C  0.62438212  0.25719073  0.23377587    -0.11250
C1130       C  0.66538356  0.24202662  0.23813957     0.03420
C1131       C  0.66455676  0.21015313  0.24371921    -0.10670
H1132       H  0.55375869  0.19882316  0.25137351     0.09020
H1133       H  0.62425225  0.28067578  0.22619616     0.06540
H1134       H  0.69506954  0.19732140  0.24639390     0.06390
C1135       C  0.62395868  0.80603583  0.50088532     0.03430
C1136       C  0.66415030  0.78995426  0.49855290    -0.12720
C1137       C  0.66479651  0.75817807  0.49223374     0.00930
C1138       C  0.62368910  0.74322603  0.48767924    -0.11250
C1139       C  0.58280962  0.75832556  0.49296473     0.03420
C1140       C  0.58362744  0.79005126  0.49952172    -0.10670
H1141       H  0.69457963  0.80271489  0.50207484     0.09020
H1142       H  0.62342987  0.71974998  0.47980603     0.06540
H1143       H  0.55320686  0.80278481  0.50336090     0.06390
C1144       C  0.62651188  0.80793406  0.24851985     0.03310
C1145       C  0.66675389  0.79187230  0.24626414    -0.12720
C1146       C  0.66733943  0.75999577  0.24011607     0.00930
C1147       C  0.62600654  0.74498448  0.23634518    -0.11250
C1148       C  0.58531900  0.76017315  0.24193068     0.03420
C1149       C  0.58624618  0.79189476  0.24792127    -0.10670
H1150       H  0.69718635  0.80474683  0.24925037     0.09020
H1151       H  0.62509585  0.72141565  0.22888508     0.06540
H1152       H  0.55588412  0.80459375  0.25217032     0.06390
C1153       C  0.74914478  0.69264705  0.99912082     0.03430
C1154       C  0.70873097  0.70863154  0.99740610    -0.12720
C1155       C  0.70787340  0.74053829  0.99192691     0.00930
C1156       C  0.74886445  0.75571816  0.98765973    -0.11250
C1157       C  0.53980434  0.74078547  0.99273005     0.03420
C1158       C  0.53917133  0.70907840  0.99874052    -0.10670
H1159       H  0.67831195  0.69577446  0.00035924     0.09020
H1160       H  0.74898233  0.77926601  0.98030578     0.06540
H1161       H  0.56962825  0.69666282  0.00325529     0.06390
C1162       C  0.50192072  0.69444352  0.24815750     0.03430
C1163       C  0.71150931  0.71032989  0.24450593    -0.12720
C1164       C  0.71053378  0.74233193  0.23959518     0.00930
C1165       C  0.50156690  0.75756247  0.23596312    -0.11250
C1166       C  0.54227675  0.74279933  0.24213918     0.03420
C1167       C  0.54151911  0.71143399  0.24951026    -0.10670
H1168       H  0.68101680  0.69741797  0.24577331     0.09020
H1169       H  0.50192393  0.78102177  0.22833751     0.06540
H1170       H  0.57181223  0.69995290  0.25629778     0.06390
C1171       C  0.75146458  0.30590684  0.49966463     0.03430
C1172       C  0.71122230  0.28979144  0.49803673    -0.12720
C1173       C  0.71054986  0.25800444  0.49172160     0.00930
C1174       C  0.75155476  0.24296791  0.48680705    -0.11250
C1175       C  0.54252719  0.25807203  0.49148308     0.03420
C1176       C  0.54175261  0.28987425  0.49758932    -0.10670
H1177       H  0.68071101  0.30247098  0.50164529     0.09020
H1178       H  0.75160936  0.21939912  0.47920171     0.06540
H1179       H  0.57218091  0.30260545  0.50128190     0.06390
C1180       C  0.49927748  0.30747068  0.24680056     0.03430
C1181       C  0.53956772  0.29145033  0.24539377    -0.12720
C1182       C  0.54043726  0.25976949  0.23908096     0.00930
C1183       C  0.49960017  0.24464946  0.23388422    -0.11250
C1184       C  0.70843861  0.25964164  0.23848203     0.03420
C1185       C  0.70904132  0.29141717  0.24499068    -0.10670
H1186       H  0.56995906  0.30413196  0.24944340     0.09020
H1187       H  0.50003043  0.22111575  0.22616531     0.06540
H1188       H  0.67857903  0.30416198  0.24858710     0.06390
O1189       O  0.53716504  0.49919781  0.04737383    -0.72640
O1190       O  0.53483564  0.49946529  0.45699299    -0.73620
O1191       O  0.53583682  0.54534586  0.50233175    -0.62240
O1192       O  0.53637638  0.45325392  0.00141732    -0.70650
O1193       O  0.71245144  0.45284883  0.00336950    -0.70210
O1194       O  0.71191283  0.54518946  0.50379942    -0.61460
O1195       O  0.71104169  0.49880551  0.45802588    -0.73970
O1196       O  0.71344166  0.49911886  0.04837724    -0.72750
Cu1197     Cu  0.53861629  0.49931279  0.50203891     1.04560
Cu1198     Cu  0.70962697  0.49899200  0.00338915     1.04330
C1199       C  0.75072029  0.49927274  0.06226324     0.93550
C1200       C  0.74751598  0.49900923  0.44316554     0.92690
C1201       C  0.74881130  0.55978203  0.50326249     0.84840
C1202       C  0.74959253  0.43857024  0.50218374     0.91110
O1203       O  0.53467532  0.50004656  0.20748316    -0.72640
O1204       O  0.53549064  0.50067585  0.29787040    -0.73620
O1205       O  0.53556638  0.45434176  0.25240299    -0.62240
O1206       O  0.53484037  0.54631140  0.25260150    -0.70650
O1207       O  0.71100989  0.54631265  0.25310090    -0.70210
O1208       O  0.71159441  0.45407454  0.25387893    -0.61460
O1209       O  0.71167528  0.50071795  0.29840841    -0.73970
O1210       O  0.71096045  0.49948154  0.20799134    -0.72750
Cu1211     Cu  0.53769467  0.50035450  0.25260806     1.04560
Cu1212     Cu  0.70872154  0.50015117  0.25332378     1.04330
C1213       C  0.74760813  0.49946751  0.19333216     0.93550
C1214       C  0.74880069  0.50091840  0.31247558     0.92690
C1215       C  0.74872704  0.43975852  0.25319236     0.84840
C1216       C  0.74791110  0.56091453  0.25294480     0.91110
C1217       C  0.74896427  0.50095920  0.34590783     0.00140
C1218       C  0.71297561  0.48749387  0.36113820    -0.11730
C1219       C  0.71183371  0.48626769  0.39265370     0.02380
C1220       C  0.74698956  0.49919068  0.40972118     0.00060
C1221       C  0.53288139  0.51275625  0.39447881    -0.11670
C1222       C  0.53413193  0.51384053  0.36297803     0.02270
H1223       H  0.68592200  0.47728317  0.34835652     0.15250
H1224       H  0.55990677  0.52303216  0.40724537     0.15250
C1225       C  0.57113157  0.52938944  0.34899327     0.36900
C1226       C  0.67515724  0.47036386  0.40665190     0.36800
N1227       N  0.60080593  0.54193159  0.33790674    -0.43440
N1228       N  0.64583927  0.45746318  0.41778412    -0.43440
C1229       C  0.75106906  0.49929548  0.09579461     0.00140
C1230       C  0.71232994  0.49005618  0.11103454    -0.11730
C1231       C  0.71024463  0.48977465  0.14254001     0.02380
C1232       C  0.74762189  0.49905014  0.15977266     0.00060
C1233       C  0.53644574  0.50817225  0.14452616    -0.11670
C1234       C  0.53854007  0.50841015  0.11299870     0.02270
H1235       H  0.68344895  0.48258635  0.09827880     0.15250
H1236       H  0.56533354  0.51562093  0.15728348     0.15250
C1237       C  0.57923769  0.51900911  0.09919693     0.36900
C1238       C  0.66961110  0.47895239  0.15626033     0.36800
N1239       N  0.61187874  0.52755339  0.08822537    -0.43440
N1240       N  0.63699973  0.47017760  0.16709841    -0.43440
C1241       C  0.74914351  0.40600226  0.25251494     0.00140
C1242       C  0.51800232  0.39116874  0.22751031    -0.11730
C1243       C  0.51795256  0.35912836  0.22529896     0.02380
C1244       C  0.49949680  0.34140450  0.24871778     0.00060
C1245       C  0.73080399  0.35625883  0.27386625    -0.11670
C1246       C  0.73057428  0.38841909  0.27593657     0.02270
H1247       H  0.53189115  0.40470314  0.20934941     0.15250
H1248       H  0.71681849  0.34271035  0.29196499     0.15250
C1249       C  0.71281269  0.40286983  0.30273067     0.36900
C1250       C  0.53531670  0.34495885  0.19821819     0.36800
N1251       N  0.69890356  0.41446835  0.32429599    -0.43440
N1252       N  0.54898180  0.33351552  0.17650194    -0.43440
C1253       C  0.75158204  0.33993244  0.50156921     0.00140
C1254       C  0.52186723  0.35635928  0.47816650    -0.11730
C1255       C  0.52123349  0.38849081  0.47791786     0.02380
C1256       C  0.75014964  0.40474125  0.50148809     0.00060
C1257       C  0.72977597  0.38844062  0.02490670    -0.11670
C1258       C  0.73062846  0.35622535  0.02524988     0.02270
H1259       H  0.53742936  0.34397728  0.45966798     0.15250
H1260       H  0.71389647  0.40092502  0.04321065     0.15250
C1261       C  0.71127581  0.34046631  0.05058496     0.36900
C1262       C  0.54034933  0.40426385  0.45247601     0.36800
N1263       N  0.69593943  0.32784117  0.07096212    -0.43440
N1264       N  0.55527580  0.41692311  0.43198042    -0.43440
C1265       C  0.74843303  0.59496457  0.25268259     0.00140
C1266       C  0.53331811  0.60975991  0.23762792    -0.11730
C1267       C  0.53512515  0.64180018  0.23574375     0.02380
C1268       C  0.75249414  0.66011082  0.25048548     0.00060
C1269       C  0.71821911  0.64511796  0.26629279    -0.11670
C1270       C  0.71529745  0.61300092  0.26685968     0.02270
H1271       H  0.55856380  0.59614427  0.22622289     0.15250
H1272       H  0.69324332  0.65846637  0.27819428     0.15250
C1273       C  0.67802338  0.59934694  0.28232693     0.36900
C1274       C  0.56956120  0.65477043  0.21700422     0.36800
N1275       N  0.64780881  0.58854954  0.29446738    -0.43440
N1276       N  0.59734787  0.66489722  0.20198760    -0.43440
C1277       C  0.74976099  0.65852882  0.00056720     0.00140
C1278       C  0.72455395  0.64336523  0.02260468    -0.11730
C1279       C  0.72388080  0.61117641  0.02399001     0.02380
C1280       C  0.74885870  0.59367600  0.00311590     0.00060
C1281       C  0.52430600  0.60876594  0.48130063    -0.11670
C1282       C  0.52452062  0.64084233  0.47959452     0.02270
H1283       H  0.70568252  0.65670436  0.03890850     0.15250
H1284       H  0.54315153  0.59538371  0.46499550     0.15250
C1285       C  0.54868590  0.65494804  0.45517692     0.36900
C1286       C  0.69889125  0.59664284  0.04774690     0.36800
N1287       N  0.56791128  0.66630225  0.43559413    -0.43440
N1288       N  0.67912142  0.58492735  0.06686838    -0.43440
C1289       C  0.62353255  0.16010390  0.24820684     0.00140
C1290       C  0.65276878  0.14525191  0.26814532    -0.11730
C1291       C  0.65436540  0.11311884  0.26970705     0.02380
C1292       C  0.62580855  0.09524595  0.25141898     0.00060
C1293       C  0.59613946  0.10998128  0.23188878    -0.11670
C1294       C  0.59522641  0.14200227  0.22974670     0.02270
H1295       H  0.67433669  0.15877922  0.28264387     0.15250
H1296       H  0.57450435  0.09634318  0.21750630     0.15250
C1297       C  0.56650862  0.15544975  0.20726175     0.36900
C1298       C  0.68451483  0.09911253  0.29093569     0.36800
N1299       N  0.54347823  0.16620423  0.18926221    -0.43440
N1300       N  0.70863466  0.08789278  0.30797895    -0.43440
C1301       C  0.62636398  0.90654843  0.25245433     0.00140
C1302       C  0.60687644  0.89123614  0.22796256    -0.11730
C1303       C  0.60703013  0.85916505  0.22633206     0.02380
C1304       C  0.62621421  0.84189698  0.24984113     0.00060
C1305       C  0.64557568  0.85723356  0.27447181    -0.11670
C1306       C  0.64570538  0.88942716  0.27595361     0.02270
H1307       H  0.59238394  0.90441300  0.20974415     0.15250
H1308       H  0.66014206  0.84404015  0.29263367     0.15250
C1309       C  0.66411393  0.90442034  0.30226456     0.36900
C1310       C  0.58897600  0.84448018  0.19972930     0.36800
N1311       N  0.67851450  0.91652893  0.32340969    -0.43440
N1312       N  0.57476053  0.83262555  0.17839302    -0.43440
C1313       C  0.62782942  0.99989619  0.40889143     0.00140
C1314       C  0.58930745  0.00963535  0.39367613    -0.11730
C1315       C  0.58770087  0.01079415  0.36218784     0.02380
C1316       C  0.62521625  0.00171315  0.34501239     0.00060
C1317       C  0.66387382  0.99223109  0.36022322    -0.11670
C1318       C  0.66562012  0.99131130  0.39170829     0.02270
H1319       H  0.56032693  0.01690107  0.40644800     0.15250
H1320       H  0.69291819  0.98505348  0.34746211     0.15250
C1321       C  0.70639187  0.98065439  0.40542408     0.36900
C1322       C  0.54752873  0.02239565  0.34841607     0.36800
N1323       N  0.73912100  0.97200118  0.41624380    -0.43440
N1324       N  0.51532918  0.03180338  0.33748971    -0.43440
C1325       C  0.62391838  0.99955547  0.09497433     0.00140
C1326       C  0.66267137  0.99025546  0.11021984    -0.11730
C1327       C  0.66479848  0.99004049  0.14172608     0.02380
C1328       C  0.62744169  0.99939937  0.15893035     0.00060
C1329       C  0.58862735  0.00859302  0.14369081    -0.11670
C1330       C  0.58648626  0.00880525  0.11218269     0.02270
H1331       H  0.69153640  0.98271180  0.09747963     0.15250
H1332       H  0.55976394  0.01611810  0.15644497     0.15250
C1333       C  0.54573367  0.01948484  0.09844115     0.36900
C1334       C  0.70543536  0.97920605  0.15548668     0.36800
N1335       N  0.51304322  0.02811188  0.08754649    -0.43440
N1336       N  0.73805472  0.97042990  0.16635964    -0.43440
C1337       C  0.62603780  0.15861573  0.00195093     0.00140
C1338       C  0.60248220  0.14215467  0.47978436    -0.11730
C1339       C  0.60230650  0.11002838  0.47941550     0.02380
C1340       C  0.62613248  0.09370928  0.00153580     0.00060
C1341       C  0.64979893  0.11002410  0.02371504    -0.11670
C1342       C  0.64955621  0.14225795  0.02429093     0.02270
H1343       H  0.58485414  0.15449951  0.46227992     0.15250
H1344       H  0.66772364  0.09754092  0.04098112     0.15250
C1345       C  0.67211996  0.15792664  0.04864482     0.36900
C1346       C  0.57925601  0.09435356  0.45523496     0.36800
N1347       N  0.69007457  0.17046470  0.06824139    -0.43440
N1348       N  0.56100514  0.08180661  0.43576812    -0.43440
C1349       C  0.62432113  0.84002811  0.50221254     0.00140
C1350       C  0.64141575  0.85590937  0.47736169    -0.11730
C1351       C  0.64134426  0.88801783  0.47669958     0.02380
C1352       C  0.62431411  0.90479113  0.50137445     0.00060
C1353       C  0.60694442  0.88901347  0.02622177    -0.11670
C1354       C  0.60698625  0.85678268  0.02687216     0.02270
H1355       H  0.65407435  0.84310407  0.45813259     0.15250
H1356       H  0.59396301  0.90190198  0.04528997     0.15250
C1357       C  0.59048966  0.84144423  0.05334873     0.36900
C1358       C  0.65674229  0.90317423  0.44981956     0.36800
N1359       N  0.57744537  0.82915531  0.07463404    -0.43440
N1360       N  0.66862527  0.91510149  0.42804198    -0.43440
O1361       O  0.66369437  0.99984936  0.95723162    -0.72640
O1362       O  0.66129793  0.99831354  0.54743457    -0.73620
O1363       O  0.66181146  0.95288604  0.50113219    -0.62240
O1364       O  0.66303802  0.04523899  0.00356018    -0.70650
O1365       O  0.58920258  0.04539419  0.00072251    -0.70210
O1366       O  0.58784553  0.95328768  0.50229492    -0.61460
O1367       O  0.58763424  0.00025309  0.54666996    -0.73970
O1368       O  0.58998025  0.99862121  0.95628773    -0.72750
Cu1369     Cu  0.66504000  0.99903188  0.50237980     1.04560
Cu1370     Cu  0.58609100  0.99939457  0.00146755     1.04330
C1371       C  0.62726369  0.99929825  0.94238236     0.93550
C1372       C  0.62414081  0.99942595  0.56144366     0.92690
C1373       C  0.62465785  0.93860995  0.00165599     0.84840
C1374       C  0.62617391  0.05982742  0.50202501     0.91110
O1375       O  0.66398715  0.00002349  0.70719979    -0.72640
O1376       O  0.66261420  0.00153521  0.79753767    -0.73620
O1377       O  0.66346531  0.95474384  0.75323679    -0.62240
O1378       O  0.66332215  0.04688825  0.75230943    -0.70650
O1379       O  0.58940832  0.04675357  0.75128916    -0.70210
O1380       O  0.58949915  0.95476901  0.75160557    -0.61460
O1381       O  0.58886712  0.00126006  0.79678840    -0.73970
O1382       O  0.59025559  0.00026498  0.70651001    -0.72750
Cu1383     Cu  0.66593709  0.00080386  0.75254385     1.04560
Cu1384     Cu  0.58694886  0.00076872  0.75155396     1.04330
C1385       C  0.62739152  0.99982779  0.69246386     0.93550
C1386       C  0.62543524  0.00164229  0.81152910     0.92690
C1387       C  0.62647090  0.94030929  0.75261531     0.84840
C1388       C  0.62628565  0.06134582  0.75186742     0.91110
C1389       C  0.62649810  0.19268392  0.50008376     0.03430
C1390       C  0.66681118  0.20869155  0.49808534    -0.12720
C1391       C  0.66753887  0.24039695  0.49175092     0.00930
C1392       C  0.62657370  0.25541187  0.48681321    -0.11250
C1393       C  0.58558153  0.24047729  0.49163262     0.03420
C1394       C  0.58628873  0.20884764  0.49815052    -0.10670
H1395       H  0.69734671  0.19601567  0.50138183     0.09020
H1396       H  0.62659768  0.27883034  0.47905871     0.06540
H1397       H  0.55580535  0.19632553  0.50213972     0.06390
C1398       C  0.62413675  0.19424121  0.74606952     0.03430
C1399       C  0.58420668  0.21085464  0.74601392    -0.12720
C1400       C  0.58350405  0.24233779  0.73917187     0.00930
C1401       C  0.62438372  0.25719064  0.73377611    -0.11250
C1402       C  0.66538520  0.24202658  0.73813979     0.03420
C1403       C  0.66455847  0.21015311  0.74371950    -0.10670
H1404       H  0.55376044  0.19882298  0.75137376     0.09020
H1405       H  0.62425381  0.28067569  0.72619639     0.06540
H1406       H  0.69507128  0.19732142  0.74639420     0.06390
C1407       C  0.62395824  0.80603580  0.00088522     0.03430
C1408       C  0.66414988  0.78995425  0.99855279    -0.12720
C1409       C  0.66479611  0.75817805  0.99223365     0.00930
C1410       C  0.62368871  0.74322600  0.98767915    -0.11250
C1411       C  0.58280922  0.75832551  0.99296464     0.03420
C1412       C  0.58362702  0.79005121  0.99952164    -0.10670
H1413       H  0.69457920  0.80271490  0.00207470     0.09020
H1414       H  0.62342949  0.71974995  0.97980594     0.06540
H1415       H  0.55320642  0.80278475  0.00336084     0.06390
C1416       C  0.62651355  0.80793402  0.74852017     0.03310
C1417       C  0.66675549  0.79187221  0.74626447    -0.12720
C1418       C  0.66734096  0.75999572  0.74011630     0.00930
C1419       C  0.62600803  0.74498447  0.73634539    -0.11250
C1420       C  0.58532051  0.76017317  0.74193088     0.03420
C1421       C  0.58624777  0.79189479  0.74792149    -0.10670
H1422       H  0.69718799  0.80474668  0.74925076     0.09020
H1423       H  0.62509731  0.72141564  0.72888525     0.06540
H1424       H  0.55588575  0.80459383  0.75217048     0.06390
C1425       C  0.74914518  0.69264707  0.49912089     0.03430
C1426       C  0.70873137  0.70863156  0.49740617    -0.12720
C1427       C  0.70787380  0.74053831  0.49192699     0.00930
C1428       C  0.74886486  0.75571819  0.48765982    -0.11250
C1429       C  0.53980472  0.74078553  0.49273013     0.03420
C1430       C  0.53917168  0.70907845  0.49874057    -0.10670
H1431       H  0.67831235  0.69577449  0.50035931     0.09020
H1432       H  0.74898274  0.77926604  0.48030589     0.06540
H1433       H  0.56962859  0.69666285  0.50325532     0.06390
C1434       C  0.50192207  0.69444356  0.74815754     0.03430
C1435       C  0.71151083  0.71032987  0.74450609    -0.12720
C1436       C  0.71053530  0.74233190  0.73959534     0.00930
C1437       C  0.50156837  0.75756256  0.73596326    -0.11250
C1438       C  0.54227820  0.74279938  0.74213932     0.03420
C1439       C  0.54152050  0.71143400  0.74951033    -0.10670
H1440       H  0.68101828  0.69741797  0.74577350     0.09020
H1441       H  0.50192546  0.78102188  0.72833772     0.06540
H1442       H  0.57181359  0.69995288  0.75629785     0.06390
C1443       C  0.75146415  0.30590684  0.99966455     0.03430
C1444       C  0.71122186  0.28979144  0.99803666    -0.12720
C1445       C  0.71054941  0.25800443  0.99172152     0.00930
C1446       C  0.75155431  0.24296791  0.98680696    -0.11250
C1447       C  0.54252675  0.25807201  0.99148301     0.03420
C1448       C  0.54175217  0.28987423  0.99758926    -0.10670
H1449       H  0.68071057  0.30247098  0.00164523     0.09020
H1450       H  0.75160890  0.21939912  0.97920161     0.06540
H1451       H  0.57218047  0.30260543  0.00128183     0.06390
C1452       C  0.49927903  0.30747059  0.74680081     0.03430
C1453       C  0.53956928  0.29145025  0.74539398    -0.12720
C1454       C  0.54043884  0.25976938  0.73908127     0.00930
C1455       C  0.49960172  0.24464932  0.73388463    -0.11250
C1456       C  0.70844024  0.25964159  0.73848221     0.03420
C1457       C  0.70904293  0.29141711  0.74499085    -0.10670
H1458       H  0.56996062  0.30413191  0.74944354     0.09020
H1459       H  0.50003196  0.22111558  0.72616580     0.06540
H1460       H  0.67858062  0.30416190  0.74858726     0.06390
O1461       O  0.53716529  0.49919786  0.54737378    -0.72640
O1462       O  0.53483568  0.49946526  0.95699304    -0.73620
O1463       O  0.53583673  0.54534582  0.00233181    -0.62240
O1464       O  0.53637652  0.45325396  0.50141728    -0.70650
O1465       O  0.71245158  0.45284883  0.50336956    -0.70210
O1466       O  0.71191268  0.54518944  0.00379936    -0.61460
O1467       O  0.71104172  0.49880550  0.95802581    -0.73970
O1468       O  0.71344194  0.49911887  0.54837729    -0.72750
Cu1469     Cu  0.53861618  0.49931275  0.00203897     1.04560
Cu1470     Cu  0.70962711  0.49899201  0.50338921     1.04330
C1471       C  0.75072061  0.49927275  0.56226324     0.93550
C1472       C  0.74751607  0.49900922  0.94316554     0.92690
C1473       C  0.74881115  0.55978201  0.00326250     0.84840
C1474       C  0.74959238  0.43857023  0.00218373     0.91110
O1475       O  0.53467590  0.50004654  0.70748315    -0.72640
O1476       O  0.53549118  0.50067584  0.79787042    -0.73620
O1477       O  0.53556698  0.45434175  0.75240299    -0.62240
O1478       O  0.53484100  0.54631138  0.75260149    -0.70650
O1479       O  0.71101063  0.54631268  0.75310092    -0.70210
O1480       O  0.71159503  0.45407450  0.75387889    -0.61460
O1481       O  0.71167586  0.50071791  0.79840838    -0.73970
O1482       O  0.71096108  0.49948156  0.70799135    -0.72750
Cu1483     Cu  0.53769526  0.50035448  0.75260806     1.04560
Cu1484     Cu  0.70872218  0.50015116  0.75332377     1.04330
C1485       C  0.74760875  0.49946750  0.69333216     0.93550
C1486       C  0.74880125  0.50091835  0.81247558     0.92690
C1487       C  0.74872767  0.43975849  0.75319233     0.84840
C1488       C  0.74791189  0.56091451  0.75294482     0.91110
C1489       C  0.74896473  0.50095914  0.84590783     0.00140
C1490       C  0.71297605  0.48749378  0.86113814    -0.11730
C1491       C  0.71183403  0.48626762  0.89265364     0.02380
C1492       C  0.74698977  0.49919066  0.90972118     0.00060
C1493       C  0.53288161  0.51275627  0.89447885    -0.11670
C1494       C  0.53413225  0.51384055  0.86297807     0.02270
H1495       H  0.68592251  0.47728303  0.84835642     0.15250
H1496       H  0.55990691  0.52303222  0.90724546     0.15250
C1497       C  0.57113187  0.52938953  0.84899335     0.36900
C1498       C  0.67515753  0.47036377  0.90665179     0.36800
N1499       N  0.60080619  0.54193174  0.83790686    -0.43440
N1500       N  0.64583954  0.45746307  0.91778396    -0.43440
C1501       C  0.75106946  0.49929548  0.59579461     0.00140
C1502       C  0.71233037  0.49005620  0.61103457    -0.11730
C1503       C  0.71024514  0.48977466  0.64254004     0.02380
C1504       C  0.74762245  0.49905013  0.65977266     0.00060
C1505       C  0.53644623  0.50817224  0.64452613    -0.11670
C1506       C  0.53854048  0.50841016  0.61299866     0.02270
H1507       H  0.68344935  0.48258639  0.59827887     0.15250
H1508       H  0.56533405  0.51562090  0.65728342     0.15250
C1509       C  0.57923807  0.51900911  0.59919686     0.36900
C1510       C  0.66961162  0.47895242  0.65626041     0.36800
N1511       N  0.61187910  0.52755339  0.58822526    -0.43440
N1512       N  0.63700026  0.47017766  0.66709850    -0.43440
C1513       C  0.74914424  0.40600223  0.75251491     0.00140
C1514       C  0.51800321  0.39116870  0.72751036    -0.11730
C1515       C  0.51795378  0.35912830  0.72529911     0.02380
C1516       C  0.49949823  0.34140443  0.74871799     0.00060
C1517       C  0.73080530  0.35625877  0.77386636    -0.11670
C1518       C  0.73057524  0.38841903  0.77593660     0.02270
H1519       H  0.53189191  0.40470310  0.70934943     0.15250
H1520       H  0.71681995  0.34271026  0.79196513     0.15250
C1521       C  0.71281354  0.40286974  0.80273067     0.36900
C1522       C  0.53531800  0.34495880  0.69821837     0.36800
N1523       N  0.69890432  0.41446825  0.82429598    -0.43440
N1524       N  0.54898317  0.33351547  0.67650213    -0.43440
C1525       C  0.75158164  0.33993244  0.00156913     0.00140
C1526       C  0.52186685  0.35635924  0.97816645    -0.11730
C1527       C  0.52123321  0.38849077  0.97791783     0.02380
C1528       C  0.75014945  0.40474125  0.00148808     0.00060
C1529       C  0.72977619  0.38844062  0.52490672    -0.11670
C1530       C  0.73062878  0.35622534  0.52524993     0.02270
H1531       H  0.53742894  0.34397724  0.95966791     0.15250
H1532       H  0.71389665  0.40092501  0.54321066     0.15250
C1533       C  0.71127615  0.34046630  0.55058501     0.36900
C1534       C  0.54034910  0.40426381  0.95247598     0.36800
N1535       N  0.69593977  0.32784116  0.57096217    -0.43440
N1536       N  0.55527561  0.41692307  0.93198041    -0.43440
C1537       C  0.74843399  0.59496454  0.75268264     0.00140
C1538       C  0.53331902  0.60975986  0.73762794    -0.11730
C1539       C  0.53512627  0.64180014  0.73574382     0.02380
C1540       C  0.75249553  0.66011079  0.75048564     0.00060
C1541       C  0.71822047  0.64511800  0.76629300    -0.11670
C1542       C  0.71529859  0.61300097  0.76685983     0.02270
H1543       H  0.55856467  0.59614417  0.72622292     0.15250
H1544       H  0.69324481  0.65846647  0.77819454     0.15250
C1545       C  0.67802451  0.59934706  0.78232712     0.36900
C1546       C  0.56956245  0.65477032  0.71700435     0.36800
N1547       N  0.64780993  0.58854972  0.79446762    -0.43440
N1548       N  0.59734923  0.66489706  0.70198780    -0.43440
C1549       C  0.74976135  0.65852884  0.50056725     0.00140
C1550       C  0.72455427  0.64336526  0.52260473    -0.11730
C1551       C  0.72388104  0.61117644  0.52399003     0.02380
C1552       C  0.74885888  0.59367601  0.50311590     0.00060
C1553       C  0.52430586  0.60876590  0.98130063    -0.11670
C1554       C  0.52452039  0.64084229  0.97959450     0.02270
H1555       H  0.70568288  0.65670440  0.53890856     0.15250
H1556       H  0.54315141  0.59538368  0.96499552     0.15250
C1557       C  0.54868565  0.65494801  0.95517690     0.36900
C1558       C  0.69889146  0.59664288  0.54774691     0.36800
N1559       N  0.56791102  0.66630223  0.93559411    -0.43440
N1560       N  0.67912160  0.58492740  0.56686839    -0.43440
C1561       C  0.62353459  0.16010384  0.74820718     0.00140
C1562       C  0.65277103  0.14525198  0.76814562    -0.11730
C1563       C  0.65436817  0.11311891  0.76970722     0.02380
C1564       C  0.62581163  0.09524589  0.75141905     0.00060
C1565       C  0.59614232  0.10998110  0.73188891    -0.11670
C1566       C  0.59522874  0.14200209  0.72974696     0.02270
H1567       H  0.67433873  0.15877939  0.78264423     0.15250
H1568       H  0.57450741  0.09634290  0.71750637     0.15250
C1569       C  0.56651075  0.15544945  0.70726207     0.36900
C1570       C  0.68451780  0.09911274  0.79093581     0.36800
N1571       N  0.54348019  0.16620384  0.68926257    -0.43440
N1572       N  0.70863780  0.08789313  0.80797904    -0.43440
C1573       C  0.62636731  0.90654839  0.75245438     0.00140
C1574       C  0.60687954  0.89123619  0.72796264    -0.11730
C1575       C  0.60703256  0.85916509  0.72633227     0.02380
C1576       C  0.62621617  0.84189694  0.74984146     0.00060
C1577       C  0.64557791  0.85723344  0.77447209    -0.11670
C1578       C  0.64570829  0.88942704  0.77595375     0.02270
H1579       H  0.59238732  0.90441310  0.70974417     0.15250
H1580       H  0.66014402  0.84403997  0.79263400     0.15250
C1581       C  0.66411709  0.90442016  0.80226466     0.36900
C1582       C  0.58897829  0.84448028  0.69972953     0.36800
N1583       N  0.67851786  0.91652870  0.82340976    -0.43440
N1584       N  0.57476272  0.83262570  0.67839325    -0.43440
C1585       C  0.62783076  0.99989628  0.90889147     0.00140
C1586       C  0.58930920  0.00963563  0.89367584    -0.11730
C1587       C  0.58770327  0.01079448  0.86218755     0.02380
C1588       C  0.62521889  0.00171329  0.84501243     0.00060
C1589       C  0.66387611  0.99223111  0.86022359    -0.11670
C1590       C  0.66562177  0.99131129  0.89170869     0.02270
H1591       H  0.56032848  0.01690146  0.90644744     0.15250
H1592       H  0.69292067  0.98505341  0.84746272     0.15250
C1593       C  0.70639314  0.98065423  0.90542486     0.36900
C1594       C  0.54753153  0.02239622  0.84841544     0.36800
N1595       N  0.73912198  0.97200089  0.91624490    -0.43440
N1596       N  0.51533229  0.03180413  0.83748881    -0.43440
C1597       C  0.62392147  0.99955573  0.59497437     0.00140
C1598       C  0.66267489  0.99025619  0.61021967    -0.11730
C1599       C  0.66480237  0.99004123  0.64172592     0.02380
C1600       C  0.62744550  0.99939960  0.65893038     0.00060
C1601       C  0.58863083  0.00859291  0.64369103    -0.11670
C1602       C  0.58648938  0.00880515  0.61218294     0.02270
H1603       H  0.69153996  0.98271289  0.59747931     0.15250
H1604       H  0.55976737  0.01611766  0.65644533     0.15250
C1605       C  0.54573637  0.01948435  0.59844167     0.36900
C1606       C  0.70543967  0.97920731  0.65548633     0.36800
N1607       N  0.51304558  0.02811108  0.58754723    -0.43440
N1608       N  0.73805938  0.97043157  0.66635914    -0.43440
C1609       C  0.62603832  0.15861574  0.50195100     0.00140
C1610       C  0.60248157  0.14215468  0.97978433    -0.11730
C1611       C  0.60230570  0.11002839  0.97941551     0.02380
C1612       C  0.62613335  0.09370930  0.50153577     0.00060
C1613       C  0.64979969  0.11002413  0.52371505    -0.11670
C1614       C  0.64955679  0.14225799  0.52429099     0.02270
H1615       H  0.58485355  0.15449954  0.96227988     0.15250
H1616       H  0.66772443  0.09754097  0.54098112     0.15250
C1617       C  0.67212044  0.15792669  0.54864492     0.36900
C1618       C  0.57925512  0.09435360  0.95523499     0.36800
N1619       N  0.69007496  0.17046477  0.56824151    -0.43440
N1620       N  0.56100418  0.08180669  0.93576816    -0.43440
C1621       C  0.62432060  0.84002809  0.00221246     0.00140
C1622       C  0.64141501  0.85590938  0.97736157    -0.11730
C1623       C  0.64134332  0.88801785  0.97669946     0.02380
C1624       C  0.62431321  0.90479110  0.00137438     0.00060
C1625       C  0.60694511  0.88901353  0.52622181    -0.11670
C1626       C  0.60698677  0.85678275  0.52687220     0.02270
H1627       H  0.65407358  0.84310412  0.95813245     0.15250
H1628       H  0.59396367  0.90190208  0.54528998     0.15250
C1629       C  0.59049002  0.84144434  0.55334875     0.36900
C1630       C  0.65674115  0.90317430  0.94981942     0.36800
N1631       N  0.57744560  0.82915545  0.57463404    -0.43440
N1632       N  0.66862397  0.91510161  0.92804183    -0.43440
O1633       O  0.91369419  0.99984942  0.45723122    -0.72640
O1634       O  0.91129523  0.99831336  0.04743497    -0.73620
O1635       O  0.91181017  0.95288602  0.00113254    -0.62240
O1636       O  0.91303906  0.04523904  0.50355980    -0.70650
O1637       O  0.83920355  0.04539422  0.50072290    -0.70210
O1638       O  0.83784421  0.95328762  0.00229435    -0.61460
O1639       O  0.83763155  0.00025289  0.04666955    -0.73970
O1640       O  0.83998005  0.99862124  0.45628814    -0.72750
Cu1641     Cu  0.91503865  0.99903184  0.00238029     1.04560
Cu1642     Cu  0.83609202  0.99939462  0.50146800     1.04330
C1643       C  0.87726315  0.99929829  0.44238236     0.93550
C1644       C  0.87413776  0.99942565  0.06144365     0.92690
C1645       C  0.87465885  0.93861000  0.50165604     0.84840
C1646       C  0.87617262  0.05982738  0.00202516     0.91110
O1647       O  0.91398277  0.00002332  0.20719969    -0.72640
O1648       O  0.91261077  0.00153527  0.29753746    -0.73620
O1649       O  0.91346141  0.95474387  0.25323674    -0.62240
O1650       O  0.91331842  0.04688815  0.25230916    -0.70650
O1651       O  0.83940458  0.04675366  0.25128918    -0.70210
O1652       O  0.83949523  0.95476898  0.25160584    -0.61460
O1653       O  0.83886369  0.00126021  0.29678861    -0.73970
O1654       O  0.84025121  0.00026484  0.20651009    -0.72750
Cu1655     Cu  0.91593319  0.00080382  0.25254368     1.04560
Cu1656     Cu  0.83694496  0.00076875  0.25155412     1.04330
C1657       C  0.87738707  0.99982752  0.19246385     0.93550
C1658       C  0.87543199  0.00164238  0.31152910     0.92690
C1659       C  0.87646703  0.94030930  0.25261546     0.84840
C1660       C  0.87628201  0.06134581  0.25186728     0.91110
C1661       C  0.87649759  0.19268390  0.00008374     0.03430
C1662       C  0.91681069  0.20869151  0.99808530    -0.12720
C1663       C  0.91753840  0.24039692  0.99175089     0.00930
C1664       C  0.87657324  0.25541185  0.98681318    -0.11250
C1665       C  0.83558107  0.24047728  0.99163260     0.03420
C1666       C  0.83628824  0.20884764  0.99815052    -0.10670
H1667       H  0.94734622  0.19601562  0.00138178     0.09020
H1668       H  0.87659723  0.27883032  0.97905868     0.06540
H1669       H  0.80580485  0.19632555  0.00213976     0.06390
C1670       C  0.87413494  0.19424121  0.24606919     0.03430
C1671       C  0.83420496  0.21085470  0.24601369    -0.12720
C1672       C  0.83350239  0.24233783  0.23917167     0.00930
C1673       C  0.87438209  0.25719067  0.23377594    -0.11250
C1674       C  0.91538354  0.24202657  0.23813961     0.03420
C1675       C  0.91455674  0.21015306  0.24371921    -0.10670
H1676       H  0.80375869  0.19882307  0.25137356     0.09020
H1677       H  0.87425221  0.28067573  0.22619624     0.06540
H1678       H  0.94506951  0.19732132  0.24639387     0.06390
C1679       C  0.87395869  0.80603585  0.50088531     0.03430
C1680       C  0.91415031  0.78995427  0.49855290    -0.12720
C1681       C  0.91479651  0.75817807  0.49223374     0.00930
C1682       C  0.87368910  0.74322604  0.48767924    -0.11250
C1683       C  0.83280961  0.75832557  0.49296474     0.03420
C1684       C  0.83362744  0.79005128  0.49952172    -0.10670
H1685       H  0.94457963  0.80271490  0.50207483     0.09020
H1686       H  0.87342986  0.71974999  0.47980603     0.06540
H1687       H  0.80320686  0.80278483  0.50336091     0.06390
C1688       C  0.87651185  0.80793405  0.24852011     0.03310
C1689       C  0.91675386  0.79187230  0.24626439    -0.12720
C1690       C  0.91733941  0.75999577  0.24011628     0.00930
C1691       C  0.87600651  0.74498448  0.23634538    -0.11250
C1692       C  0.83531896  0.76017316  0.24193086     0.03420
C1693       C  0.83624615  0.79189475  0.24792150    -0.10670
H1694       H  0.94718632  0.80474683  0.24925061     0.09020
H1695       H  0.87509582  0.72141566  0.22888525     0.06540
H1696       H  0.80588409  0.80459374  0.25217055     0.06390
C1697       C  0.99914478  0.69264706  0.99912083     0.03430
C1698       C  0.95873097  0.70863156  0.99740610    -0.12720
C1699       C  0.95787340  0.74053831  0.99192692     0.00930
C1700       C  0.99886446  0.75571818  0.98765977    -0.11250
C1701       C  0.78980430  0.74078551  0.99273007     0.03420
C1702       C  0.78917128  0.70907844  0.99874052    -0.10670
H1703       H  0.92831195  0.69577448  0.00035923     0.09020
H1704       H  0.99898235  0.77926604  0.98030584     0.06540
H1705       H  0.81962819  0.69666285  0.00325527     0.06390
C1706       C  0.75192058  0.69444357  0.24815741     0.03430
C1707       C  0.96150933  0.71032990  0.24450604    -0.12720
C1708       C  0.96053377  0.74233194  0.23959534     0.00930
C1709       C  0.75156686  0.75756256  0.23596314    -0.11250
C1710       C  0.79227668  0.74279938  0.24213926     0.03420
C1711       C  0.79151898  0.71143402  0.24951028    -0.10670
H1712       H  0.93101682  0.69741798  0.24577344     0.09020
H1713       H  0.75192397  0.78102188  0.22833759     0.06540
H1714       H  0.82181206  0.69995292  0.25629785     0.06390
C1715       C  0.00146459  0.30590685  0.49966462     0.03430
C1716       C  0.96122231  0.28979145  0.49803674    -0.12720
C1717       C  0.96054986  0.25800444  0.49172160     0.00930
C1718       C  0.00155475  0.24296791  0.48680704    -0.11250
C1719       C  0.79252718  0.25807201  0.49148313     0.03420
C1720       C  0.79175259  0.28987424  0.49758936    -0.10670
H1721       H  0.93071102  0.30247099  0.50164530     0.09020
H1722       H  0.00160935  0.21939913  0.47920170     0.06540
H1723       H  0.82218088  0.30260544  0.50128193     0.06390
C1724       C  0.74927746  0.30747063  0.24680065     0.03430
C1725       C  0.78956768  0.29145027  0.24539384    -0.12720
C1726       C  0.79043721  0.25976942  0.23908108     0.00930
C1727       C  0.74960008  0.24464937  0.23388442    -0.11250
C1728       C  0.95843860  0.25964159  0.23848209     0.03420
C1729       C  0.95904130  0.29141713  0.24499071    -0.10670
H1730       H  0.81995903  0.30413190  0.24944343     0.09020
H1731       H  0.75003030  0.22111565  0.22616556     0.06540
H1732       H  0.92857900  0.30416194  0.24858709     0.06390
O1733       O  0.78716501  0.49919784  0.04737382    -0.72640
O1734       O  0.78483562  0.49946529  0.45699298    -0.73620
O1735       O  0.78583682  0.54534586  0.50233173    -0.62240
O1736       O  0.78637636  0.45325394  0.00141731    -0.70650
O1737       O  0.96245144  0.45284883  0.00336949    -0.70210
O1738       O  0.96191283  0.54518946  0.50379940    -0.61460
O1739       O  0.96104170  0.49880551  0.45802586    -0.73970
O1740       O  0.96344167  0.49911886  0.04837723    -0.72750
Cu1741     Cu  0.78861628  0.49931279  0.50203890     1.04560
Cu1742     Cu  0.95962698  0.49899200  0.00338914     1.04330
C1743       C  0.00072030  0.49927274  0.06226323     0.93550
C1744       C  0.99751599  0.49900923  0.44316553     0.92690
C1745       C  0.99881130  0.55978203  0.50326248     0.84840
C1746       C  0.99959255  0.43857024  0.50218373     0.91110
O1747       O  0.78467527  0.50004657  0.20748315    -0.72640
O1748       O  0.78549059  0.50067589  0.29787038    -0.73620
O1749       O  0.78556637  0.45434177  0.25240299    -0.62240
O1750       O  0.78484027  0.54631144  0.25260146    -0.70650
O1751       O  0.96100992  0.54631264  0.25310089    -0.70210
O1752       O  0.96159440  0.45407453  0.25387892    -0.61460
O1753       O  0.96167528  0.50071793  0.29840840    -0.73970
O1754       O  0.96096046  0.49948154  0.20799132    -0.72750
Cu1755     Cu  0.78769462  0.50035452  0.25260804     1.04560
Cu1756     Cu  0.95872155  0.50015116  0.25332376     1.04330
C1757       C  0.99760814  0.49946750  0.19333215     0.93550
C1758       C  0.99880070  0.50091839  0.31247556     0.92690
C1759       C  0.99872703  0.43975850  0.25319234     0.84840
C1760       C  0.99791113  0.56091452  0.25294479     0.91110
C1761       C  0.99896427  0.50095919  0.34590782     0.00140
C1762       C  0.96297564  0.48749385  0.36113819    -0.11730
C1763       C  0.96183374  0.48626767  0.39265369     0.02380
C1764       C  0.99698957  0.49919068  0.40972117     0.00060
C1765       C  0.78288136  0.51275626  0.39447879    -0.11670
C1766       C  0.78413188  0.51384056  0.36297801     0.02270
H1767       H  0.93592203  0.47728313  0.34835651     0.15250
H1768       H  0.80990673  0.52303218  0.40724536     0.15250
C1769       C  0.82113152  0.52938947  0.34899325     0.36900
C1770       C  0.92515728  0.47036382  0.40665189     0.36800
N1771       N  0.85080587  0.54193163  0.33790673    -0.43440
N1772       N  0.89583933  0.45746313  0.41778411    -0.43440
C1773       C  0.00106907  0.49929547  0.09579460     0.00140
C1774       C  0.96232994  0.49005618  0.11103452    -0.11730
C1775       C  0.96024464  0.48977464  0.14254000     0.02380
C1776       C  0.99762190  0.49905013  0.15977264     0.00060
C1777       C  0.78644571  0.50817225  0.14452615    -0.11670
C1778       C  0.78854004  0.50841016  0.11299869     0.02270
H1779       H  0.93344895  0.48258636  0.09827879     0.15250
H1780       H  0.81533350  0.51562092  0.15728347     0.15250
C1781       C  0.82923765  0.51900911  0.09919693     0.36900
C1782       C  0.91961111  0.47895239  0.15626032     0.36800
N1783       N  0.86187871  0.52755339  0.08822537    -0.43440
N1784       N  0.88699973  0.47017761  0.16709839    -0.43440
C1785       C  0.99914348  0.40600224  0.25251493     0.00140
C1786       C  0.76800237  0.39116870  0.22751036    -0.11730
C1787       C  0.76795260  0.35912831  0.22529903     0.02380
C1788       C  0.74949680  0.34140446  0.24871785     0.00060
C1789       C  0.98080398  0.35625882  0.27386626    -0.11670
C1790       C  0.98057428  0.38841907  0.27593657     0.02270
H1791       H  0.78189123  0.40470308  0.20934947     0.15250
H1792       H  0.96681850  0.34271034  0.29196501     0.15250
C1793       C  0.96281274  0.40286982  0.30273068     0.36900
C1794       C  0.78531676  0.34495879  0.19821828     0.36800
N1795       N  0.94890364  0.41446835  0.32429601    -0.43440
N1796       N  0.79898189  0.33351545  0.17650204    -0.43440
C1797       C  0.00158205  0.33993245  0.50156920     0.00140
C1798       C  0.77186720  0.35635926  0.47816652    -0.11730
C1799       C  0.77123346  0.38849079  0.47791786     0.02380
C1800       C  0.00014966  0.40474126  0.50148809     0.00060
C1801       C  0.97977595  0.38844062  0.02490668    -0.11670
C1802       C  0.98062844  0.35622534  0.02524986     0.02270
H1803       H  0.78742934  0.34397726  0.45966800     0.15250
H1804       H  0.96389643  0.40092502  0.04321062     0.15250
C1805       C  0.96127577  0.34046630  0.05058494     0.36900
C1806       C  0.79034931  0.40426383  0.45247601     0.36800
N1807       N  0.94593937  0.32784117  0.07096209    -0.43440
N1808       N  0.80527579  0.41692308  0.43198042    -0.43440
C1809       C  0.99843307  0.59496456  0.25268260     0.00140
C1810       C  0.78331802  0.60975995  0.23762791    -0.11730
C1811       C  0.78512505  0.64180022  0.23574373     0.02380
C1812       C  0.00249418  0.66011082  0.25048552     0.00060
C1813       C  0.96821916  0.64511795  0.26629284    -0.11670
C1814       C  0.96529750  0.61300091  0.26685971     0.02270
H1815       H  0.80856379  0.59614431  0.22622295     0.15250
H1816       H  0.94324339  0.65846636  0.27819434     0.15250
C1817       C  0.92802344  0.59934693  0.28232695     0.36900
C1818       C  0.81956119  0.65477047  0.21700427     0.36800
N1819       N  0.89780886  0.58854952  0.29446740    -0.43440
N1820       N  0.84734793  0.66489726  0.20198771    -0.43440
C1821       C  0.99976099  0.65852883  0.00056719     0.00140
C1822       C  0.97455394  0.64336524  0.02260467    -0.11730
C1823       C  0.97388079  0.61117642  0.02399000     0.02380
C1824       C  0.99885870  0.59367601  0.00311589     0.00060
C1825       C  0.77430601  0.60876595  0.48130063    -0.11670
C1826       C  0.77452063  0.64084234  0.47959453     0.02270
H1827       H  0.95568250  0.65670437  0.03890849     0.15250
H1828       H  0.79315155  0.59538372  0.46499550     0.15250
C1829       C  0.79868592  0.65494806  0.45517694     0.36900
C1830       C  0.94889123  0.59664285  0.04774688     0.36800
N1831       N  0.81791130  0.66630227  0.43559415    -0.43440
N1832       N  0.92912140  0.58492736  0.06686836    -0.43440
C1833       C  0.87353250  0.16010383  0.24820678     0.00140
C1834       C  0.90276867  0.14525181  0.26814526    -0.11730
C1835       C  0.90436520  0.11311874  0.26970699     0.02380
C1836       C  0.87580833  0.09524588  0.25141890     0.00060
C1837       C  0.84613931  0.10998126  0.23188868    -0.11670
C1838       C  0.84522634  0.14200225  0.22974661     0.02270
H1839       H  0.92433659  0.15877909  0.28264383     0.15250
H1840       H  0.82450419  0.09634318  0.21750619     0.15250
C1841       C  0.81650861  0.15544977  0.20726165     0.36900
C1842       C  0.93451456  0.09911238  0.29093566     0.36800
N1843       N  0.79347826  0.16620429  0.18926211    -0.43440
N1844       N  0.95863431  0.08789260  0.30797893    -0.43440
C1845       C  0.87636367  0.90654840  0.25245456     0.00140
C1846       C  0.85687630  0.89123608  0.22796275    -0.11730
C1847       C  0.85703010  0.85916499  0.22633226     0.02380
C1848       C  0.87621414  0.84189696  0.24984137     0.00060
C1849       C  0.89557545  0.85723357  0.27447208    -0.11670
C1850       C  0.89570504  0.88942717  0.27595388     0.02270
H1851       H  0.84238384  0.90441292  0.20974432     0.15250
H1852       H  0.91014180  0.84404019  0.29263398     0.15250
C1853       C  0.91411346  0.90442039  0.30226485     0.36900
C1854       C  0.83897612  0.84448009  0.19972947     0.36800
N1855       N  0.92851392  0.91652901  0.32341000    -0.43440
N1856       N  0.82476077  0.83262543  0.17839317    -0.43440
C1857       C  0.87782942  0.99989629  0.40889146     0.00140
C1858       C  0.83930747  0.00963554  0.39367619    -0.11730
C1859       C  0.83770086  0.01079437  0.36218791     0.02380
C1860       C  0.87521618  0.00171330  0.34501243     0.00060
C1861       C  0.91387374  0.99223117  0.36022323    -0.11670
C1862       C  0.91562008  0.99131136  0.39170830     0.02270
H1863       H  0.81032699  0.01690130  0.40644808     0.15250
H1864       H  0.94291806  0.98505351  0.34746210     0.15250
C1865       C  0.95639180  0.98065438  0.40542406     0.36900
C1866       C  0.79752876  0.02239597  0.34841617     0.36800
N1867       N  0.98912091  0.97200110  0.41624376    -0.43440
N1868       N  0.76532923  0.03180377  0.33748983    -0.43440
C1869       C  0.87391770  0.99955514  0.09497436     0.00140
C1870       C  0.91267085  0.99025544  0.11021986    -0.11730
C1871       C  0.91479798  0.99004047  0.14172610     0.02380
C1872       C  0.87744104  0.99939902  0.15893038     0.00060
C1873       C  0.83862646  0.00859223  0.14369085    -0.11670
C1874       C  0.83648536  0.00880446  0.11218272     0.02270
H1875       H  0.94153603  0.98271206  0.09747965     0.15250
H1876       H  0.80976287  0.01611698  0.15644502     0.15250
C1877       C  0.79573247  0.01948354  0.09844121     0.36900
C1878       C  0.95543508  0.97920638  0.15548667     0.36800
N1879       N  0.76304176  0.02811016  0.08754657    -0.43440
N1880       N  0.98805460  0.97043049  0.16635961    -0.43440
C1881       C  0.87603770  0.15861572  0.00195099     0.00140
C1882       C  0.85248221  0.14215468  0.47978443    -0.11730
C1883       C  0.85230652  0.11002839  0.47941557     0.02380
C1884       C  0.87613217  0.09370927  0.00153591     0.00060
C1885       C  0.89979868  0.11002407  0.02371514    -0.11670
C1886       C  0.89955606  0.14225793  0.02429101     0.02270
H1887       H  0.83485413  0.15449952  0.46228000     0.15250
H1888       H  0.91772335  0.09754089  0.04098123     0.15250
C1889       C  0.92211986  0.15792660  0.04864488     0.36900
C1890       C  0.82925600  0.09435357  0.45523503     0.36800
N1891       N  0.94007451  0.17046466  0.06824144    -0.43440
N1892       N  0.81100512  0.08180663  0.43576820    -0.43440
C1893       C  0.87432114  0.84002813  0.50221253     0.00140
C1894       C  0.89141578  0.85590938  0.47736169    -0.11730
C1895       C  0.89134429  0.88801784  0.47669958     0.02380
C1896       C  0.87431414  0.90479114  0.50137445     0.00060
C1897       C  0.85694418  0.88901347  0.02622170    -0.11670
C1898       C  0.85698613  0.85678269  0.02687213     0.02270
H1899       H  0.90407438  0.84310408  0.45813259     0.15250
H1900       H  0.84396273  0.90190199  0.04528989     0.15250
C1901       C  0.84048957  0.84144424  0.05334871     0.36900
C1902       C  0.90674232  0.90317423  0.44981956     0.36800
N1903       N  0.82744530  0.82915532  0.07463402    -0.43440
N1904       N  0.91862530  0.91510148  0.42804198    -0.43440
O1905       O  0.91369415  0.99984943  0.95723169    -0.72640
O1906       O  0.91129800  0.99831354  0.54743458    -0.73620
O1907       O  0.91181150  0.95288605  0.50113219    -0.62240
O1908       O  0.91303766  0.04523897  0.00356032    -0.70650
O1909       O  0.83920223  0.04539418  0.00072256    -0.70210
O1910       O  0.83784557  0.95328769  0.50229493    -0.61460
O1911       O  0.83763430  0.00025308  0.54666999    -0.73970
O1912       O  0.83998004  0.99862128  0.95628770    -0.72750
Cu1913     Cu  0.91504004  0.99903190  0.50237982     1.04560
Cu1914     Cu  0.83609064  0.99939455  0.00146751     1.04330
C1915       C  0.87726352  0.99929833  0.94238238     0.93550
C1916       C  0.87414088  0.99942594  0.56144368     0.92690
C1917       C  0.87465752  0.93860995  0.00165591     0.84840
C1918       C  0.87617396  0.05982743  0.50202506     0.91110
O1919       O  0.91398723  0.00002348  0.70719981    -0.72640
O1920       O  0.91261424  0.00153521  0.79753770    -0.73620
O1921       O  0.91346537  0.95474383  0.75323682    -0.62240
O1922       O  0.91332221  0.04688824  0.75230944    -0.70650
O1923       O  0.83940838  0.04675357  0.75128917    -0.70210
O1924       O  0.83949920  0.95476900  0.75160558    -0.61460
O1925       O  0.83886716  0.00126007  0.79678841    -0.73970
O1926       O  0.84025566  0.00026497  0.70651002    -0.72750
Cu1927     Cu  0.91593715  0.00080386  0.75254388     1.04560
Cu1928     Cu  0.83694892  0.00076871  0.75155397     1.04330
C1929       C  0.87739160  0.99982778  0.69246387     0.93550
C1930       C  0.87543527  0.00164231  0.81152911     0.92690
C1931       C  0.87647096  0.94030929  0.75261533     0.84840
C1932       C  0.87628571  0.06134581  0.75186743     0.91110
C1933       C  0.87649812  0.19268393  0.50008382     0.03430
C1934       C  0.91681119  0.20869156  0.49808538    -0.12720
C1935       C  0.91753887  0.24039696  0.49175095     0.00930
C1936       C  0.87657369  0.25541188  0.48681325    -0.11250
C1937       C  0.83558153  0.24047729  0.49163268     0.03420
C1938       C  0.83628874  0.20884764  0.49815059    -0.10670
H1939       H  0.94734673  0.19601568  0.50138186     0.09020
H1940       H  0.87659766  0.27883035  0.47905875     0.06540
H1941       H  0.80580536  0.19632553  0.50213980     0.06390
C1942       C  0.87413676  0.19424121  0.74606953     0.03430
C1943       C  0.83420669  0.21085463  0.74601391    -0.12720
C1944       C  0.83350406  0.24233778  0.73917186     0.00930
C1945       C  0.87438373  0.25719064  0.73377611    -0.11250
C1946       C  0.91538521  0.24202658  0.73813979     0.03420
C1947       C  0.91455848  0.21015311  0.74371950    -0.10670
H1948       H  0.80376044  0.19882297  0.75137375     0.09020
H1949       H  0.87425382  0.28067569  0.72619638     0.06540
H1950       H  0.94507129  0.19732143  0.74639421     0.06390
C1951       C  0.87395821  0.80603582  0.00088522     0.03430
C1952       C  0.91414986  0.78995427  0.99855278    -0.12720
C1953       C  0.91479610  0.75817807  0.99223366     0.00930
C1954       C  0.87368870  0.74322601  0.98767917    -0.11250
C1955       C  0.83280920  0.75832554  0.99296466     0.03420
C1956       C  0.83362700  0.79005123  0.99952165    -0.10670
H1957       H  0.94457917  0.80271493  0.00207469     0.09020
H1958       H  0.87342947  0.71974996  0.97980597     0.06540
H1959       H  0.80320641  0.80278477  0.00336086     0.06390
C1960       C  0.87651356  0.80793401  0.74852018     0.03310
C1961       C  0.91675549  0.79187220  0.74626448    -0.12720
C1962       C  0.91734096  0.75999571  0.74011630     0.00930
C1963       C  0.87600803  0.74498446  0.73634538    -0.11250
C1964       C  0.83532051  0.76017316  0.74193087     0.03420
C1965       C  0.83624777  0.79189478  0.74792148    -0.10670
H1966       H  0.94718799  0.80474667  0.74925077     0.09020
H1967       H  0.87509732  0.72141563  0.72888524     0.06540
H1968       H  0.80588575  0.80459382  0.75217048     0.06390
C1969       C  0.99914517  0.69264707  0.49912088     0.03430
C1970       C  0.95873136  0.70863157  0.49740616    -0.12720
C1971       C  0.95787379  0.74053832  0.49192698     0.00930
C1972       C  0.99886486  0.75571819  0.48765982    -0.11250
C1973       C  0.78980471  0.74078554  0.49273015     0.03420
C1974       C  0.78917168  0.70907846  0.49874058    -0.10670
H1975       H  0.92831234  0.69577449  0.50035930     0.09020
H1976       H  0.99898274  0.77926605  0.48030588     0.06540
H1977       H  0.81962859  0.69666286  0.50325532     0.06390
C1978       C  0.75192208  0.69444355  0.74815754     0.03430
C1979       C  0.96151083  0.71032986  0.74450609    -0.12720
C1980       C  0.96053530  0.74233189  0.73959534     0.00930
C1981       C  0.75156838  0.75756254  0.73596325    -0.11250
C1982       C  0.79227821  0.74279936  0.74213932     0.03420
C1983       C  0.79152051  0.71143399  0.74951033    -0.10670
H1984       H  0.93101828  0.69741797  0.74577351     0.09020
H1985       H  0.75192547  0.78102186  0.72833771     0.06540
H1986       H  0.82181360  0.69995287  0.75629784     0.06390
C1987       C  0.00146415  0.30590682  0.99966454     0.03430
C1988       C  0.96122186  0.28979142  0.99803667    -0.12720
C1989       C  0.96054940  0.25800441  0.99172155     0.00930
C1990       C  0.00155430  0.24296788  0.98680699    -0.11250
C1991       C  0.79252672  0.25807201  0.99148304     0.03420
C1992       C  0.79175215  0.28987423  0.99758928    -0.10670
H1993       H  0.93071057  0.30247096  0.00164524     0.09020
H1994       H  0.00160888  0.21939910  0.97920166     0.06540
H1995       H  0.82218045  0.30260543  0.00128185     0.06390
C1996       C  0.74927904  0.30747059  0.74680080     0.03430
C1997       C  0.78956929  0.29145025  0.74539398    -0.12720
C1998       C  0.79043885  0.25976937  0.73908126     0.00930
C1999       C  0.74960173  0.24464932  0.73388462    -0.11250
C2000       C  0.95844025  0.25964159  0.73848221     0.03420
C2001       C  0.95904293  0.29141711  0.74499085    -0.10670
H2002       H  0.81996063  0.30413190  0.74944354     0.09020
H2003       H  0.75003198  0.22111559  0.72616578     0.06540
H2004       H  0.92858062  0.30416190  0.74858727     0.06390
O2005       O  0.78716529  0.49919786  0.54737377    -0.72640
O2006       O  0.78483566  0.49946528  0.95699303    -0.73620
O2007       O  0.78583668  0.54534585  0.00233179    -0.62240
O2008       O  0.78637650  0.45325395  0.50141726    -0.70650
O2009       O  0.96245160  0.45284883  0.50336955    -0.70210
O2010       O  0.96191269  0.54518945  0.00379935    -0.61460
O2011       O  0.96104172  0.49880551  0.95802580    -0.73970
O2012       O  0.96344195  0.49911887  0.54837727    -0.72750
Cu2013     Cu  0.78861615  0.49931278  0.00203896     1.04560
Cu2014     Cu  0.95962712  0.49899201  0.50338920     1.04330
C2015       C  0.00072062  0.49927275  0.56226323     0.93550
C2016       C  0.99751606  0.49900923  0.94316553     0.92690
C2017       C  0.99881115  0.55978202  0.00326249     0.84840
C2018       C  0.99959238  0.43857023  0.00218372     0.91110
O2019       O  0.78467591  0.50004653  0.70748314    -0.72640
O2020       O  0.78549118  0.50067583  0.79787041    -0.73620
O2021       O  0.78556699  0.45434174  0.75240299    -0.62240
O2022       O  0.78484101  0.54631137  0.75260148    -0.70650
O2023       O  0.96101063  0.54631267  0.75310091    -0.70210
O2024       O  0.96159502  0.45407450  0.75387888    -0.61460
O2025       O  0.96167585  0.50071791  0.79840837    -0.73970
O2026       O  0.96096108  0.49948156  0.70799134    -0.72750
Cu2027     Cu  0.78769526  0.50035447  0.75260805     1.04560
Cu2028     Cu  0.95872217  0.50015116  0.75332376     1.04330
C2029       C  0.99760875  0.49946750  0.69333215     0.93550
C2030       C  0.99880124  0.50091835  0.81247557     0.92690
C2031       C  0.99872767  0.43975849  0.75319232     0.84840
C2032       C  0.99791189  0.56091451  0.75294481     0.91110
C2033       C  0.99896472  0.50095914  0.84590782     0.00140
C2034       C  0.96297605  0.48749377  0.86113813    -0.11730
C2035       C  0.96183403  0.48626762  0.89265363     0.02380
C2036       C  0.99698977  0.49919067  0.90972117     0.00060
C2037       C  0.78288160  0.51275628  0.89447884    -0.11670
C2038       C  0.78413224  0.51384056  0.86297806     0.02270
H2039       H  0.93592251  0.47728302  0.84835641     0.15250
H2040       H  0.80990690  0.52303224  0.90724545     0.15250
C2041       C  0.82113187  0.52938953  0.84899334     0.36900
C2042       C  0.92515753  0.47036376  0.90665178     0.36800
N2043       N  0.85080619  0.54193173  0.83790685    -0.43440
N2044       N  0.89583956  0.45746305  0.91778396    -0.43440
C2045       C  0.00106947  0.49929549  0.59579460     0.00140
C2046       C  0.96233038  0.49005620  0.61103456    -0.11730
C2047       C  0.96024515  0.48977466  0.64254003     0.02380
C2048       C  0.99762246  0.49905013  0.65977265     0.00060
C2049       C  0.78644624  0.50817223  0.64452611    -0.11670
C2050       C  0.78854049  0.50841015  0.61299865     0.02270
H2051       H  0.93344936  0.48258638  0.59827886     0.15250
H2052       H  0.81533407  0.51562089  0.65728341     0.15250
C2053       C  0.82923808  0.51900910  0.59919685     0.36900
C2054       C  0.91961163  0.47895242  0.65626039     0.36800
N2055       N  0.86187911  0.52755338  0.58822525    -0.43440
N2056       N  0.88700027  0.47017764  0.66709849    -0.43440
C2057       C  0.99914423  0.40600223  0.75251490     0.00140
C2058       C  0.76800321  0.39116870  0.72751036    -0.11730
C2059       C  0.76795379  0.35912830  0.72529910     0.02380
C2060       C  0.74949824  0.34140442  0.74871798     0.00060
C2061       C  0.98080534  0.35625876  0.77386637    -0.11670
C2062       C  0.98057528  0.38841902  0.77593661     0.02270
H2063       H  0.78189191  0.40470310  0.70934942     0.15250
H2064       H  0.96682003  0.34271026  0.79196516     0.15250
C2065       C  0.96281364  0.40286974  0.80273070     0.36900
C2066       C  0.78531801  0.34495879  0.69821836     0.36800
N2067       N  0.94890445  0.41446825  0.82429602    -0.43440
N2068       N  0.79898317  0.33351547  0.67650212    -0.43440
C2069       C  0.00158164  0.33993243  0.00156912     0.00140
C2070       C  0.77186685  0.35635925  0.97816645    -0.11730
C2071       C  0.77123321  0.38849078  0.97791783     0.02380
C2072       C  0.00014945  0.40474124  0.00148807     0.00060
C2073       C  0.97977620  0.38844063  0.52490671    -0.11670
C2074       C  0.98062879  0.35622535  0.52524992     0.02270
H2075       H  0.78742894  0.34397724  0.95966792     0.15250
H2076       H  0.96389664  0.40092502  0.54321064     0.15250
C2077       C  0.96127613  0.34046631  0.55058500     0.36900
C2078       C  0.79034911  0.40426382  0.95247599     0.36800
N2079       N  0.94593974  0.32784117  0.57096215    -0.43440
N2080       N  0.80527563  0.41692307  0.93198042    -0.43440
C2081       C  0.99843399  0.59496454  0.75268263     0.00140
C2082       C  0.78331903  0.60975985  0.73762793    -0.11730
C2083       C  0.78512628  0.64180012  0.73574382     0.02380
C2084       C  0.00249553  0.66011079  0.75048564     0.00060
C2085       C  0.96822047  0.64511800  0.76629300    -0.11670
C2086       C  0.96529859  0.61300096  0.76685983     0.02270
H2087       H  0.80856467  0.59614416  0.72622291     0.15250
H2088       H  0.94324482  0.65846646  0.77819455     0.15250
C2089       C  0.92802452  0.59934706  0.78232712     0.36900
C2090       C  0.81956246  0.65477031  0.71700435     0.36800
N2091       N  0.89780993  0.58854972  0.79446762    -0.43440
N2092       N  0.84734924  0.66489705  0.70198779    -0.43440
C2093       C  0.99976133  0.65852884  0.50056724     0.00140
C2094       C  0.97455426  0.64336526  0.52260472    -0.11730
C2095       C  0.97388103  0.61117644  0.52399002     0.02380
C2096       C  0.99885888  0.59367602  0.50311589     0.00060
C2097       C  0.77430579  0.60876594  0.98130062    -0.11670
C2098       C  0.77452033  0.64084233  0.97959449     0.02270
H2099       H  0.95568287  0.65670440  0.53890855     0.15250
H2100       H  0.79315136  0.59538372  0.96499550     0.15250
C2101       C  0.79868559  0.65494805  0.95517689     0.36900
C2102       C  0.94889145  0.59664288  0.54774690     0.36800
N2103       N  0.81791096  0.66630227  0.93559410    -0.43440
N2104       N  0.92912160  0.58492740  0.56686838    -0.43440
C2105       C  0.87353461  0.16010383  0.74820719     0.00140
C2106       C  0.90277106  0.14525198  0.76814562    -0.11730
C2107       C  0.90436822  0.11311892  0.76970722     0.02380
C2108       C  0.87581168  0.09524589  0.75141906     0.00060
C2109       C  0.84614236  0.10998109  0.73188891    -0.11670
C2110       C  0.84522876  0.14200208  0.72974697     0.02270
H2111       H  0.92433875  0.15877939  0.78264423     0.15250
H2112       H  0.82450746  0.09634288  0.71750638     0.15250
C2113       C  0.81651077  0.15544943  0.70726207     0.36900
C2114       C  0.93451786  0.09911275  0.79093581     0.36800
N2115       N  0.79348019  0.16620382  0.68926259    -0.43440
N2116       N  0.95863787  0.08789314  0.80797903    -0.43440
C2117       C  0.87636736  0.90654839  0.75245439     0.00140
C2118       C  0.85687962  0.89123618  0.72796264    -0.11730
C2119       C  0.85703262  0.85916508  0.72633227     0.02380
C2120       C  0.87621618  0.84189693  0.74984147     0.00060
C2121       C  0.89557789  0.85723343  0.77447212    -0.11670
C2122       C  0.89570829  0.88942703  0.77595378     0.02270
H2123       H  0.84238743  0.90441310  0.70974417     0.15250
H2124       H  0.91014397  0.84403995  0.79263404     0.15250
C2125       C  0.91411705  0.90442014  0.80226470     0.36900
C2126       C  0.83897839  0.84448028  0.69972951     0.36800
N2127       N  0.92851778  0.91652868  0.82340982    -0.43440
N2128       N  0.82476284  0.83262571  0.67839323    -0.43440
C2129       C  0.87783067  0.99989638  0.90889149     0.00140
C2130       C  0.83930913  0.00963572  0.89367582    -0.11730
C2131       C  0.83770325  0.01079454  0.86218753     0.02380
C2132       C  0.87521889  0.00171333  0.84501244     0.00060
C2133       C  0.91387609  0.99223117  0.86022364    -0.11670
C2134       C  0.91562170  0.99131138  0.89170874     0.02270
H2135       H  0.81032838  0.01690154  0.90644740     0.15250
H2136       H  0.94292066  0.98505345  0.84746279     0.15250
C2137       C  0.95639304  0.98065431  0.90542495     0.36900
C2138       C  0.79753153  0.02239628  0.84841539     0.36800
N2139       N  0.98912185  0.97200097  0.91624502    -0.43440
N2140       N  0.76533230  0.03180418  0.83748874    -0.43440
C2141       C  0.87392155  0.99955572  0.59497439     0.00140
C2142       C  0.91267496  0.99025615  0.61021969    -0.11730
C2143       C  0.91480244  0.99004119  0.64172594     0.02380
C2144       C  0.87744559  0.99939960  0.65893040     0.00060
C2145       C  0.83863094  0.00859295  0.64369105    -0.11670
C2146       C  0.83648948  0.00880519  0.61218296     0.02270
H2147       H  0.94154001  0.98271282  0.59747932     0.15250
H2148       H  0.80976750  0.01611774  0.65644535     0.15250
C2149       C  0.79573650  0.01948444  0.59844170     0.36900
C2150       C  0.95543973  0.97920725  0.65548635     0.36800
N2151       N  0.76304573  0.02811121  0.58754726    -0.43440
N2152       N  0.98805942  0.97043148  0.66635916    -0.43440
C2153       C  0.87603835  0.15861575  0.50195106     0.00140
C2154       C  0.85248142  0.14215469  0.97978440    -0.11730
C2155       C  0.85230545  0.11002840  0.97941561     0.02380
C2156       C  0.87613339  0.09370931  0.50153583     0.00060
C2157       C  0.89979975  0.11002415  0.52371510    -0.11670
C2158       C  0.89955684  0.14225800  0.52429104     0.02270
H2159       H  0.83485344  0.15449956  0.96227995     0.15250
H2160       H  0.91772450  0.09754098  0.54098116     0.15250
C2161       C  0.92212051  0.15792670  0.54864496     0.36900
C2162       C  0.82925483  0.09435363  0.95523509     0.36800
N2163       N  0.94007504  0.17046478  0.56824155    -0.43440
N2164       N  0.81100386  0.08180673  0.93576827    -0.43440
C2165       C  0.87432054  0.84002810  0.00221245     0.00140
C2166       C  0.89141492  0.85590940  0.97736155    -0.11730
C2167       C  0.89134312  0.88801786  0.97669940     0.02380
C2168       C  0.87431293  0.90479111  0.00137430     0.00060
C2169       C  0.85694513  0.88901355  0.52622180    -0.11670
C2170       C  0.85698678  0.85678276  0.52687220     0.02270
H2171       H  0.90407354  0.84310413  0.95813244     0.15250
H2172       H  0.84396368  0.90190210  0.54528997     0.15250
C2173       C  0.84049001  0.84144436  0.55334874     0.36900
C2174       C  0.90674093  0.90317431  0.94981936     0.36800
N2175       N  0.82744558  0.82915547  0.57463402    -0.43440
N2176       N  0.91862373  0.91510163  0.92804177    -0.43440
loop_ 
_geom_bond_atom_site_label_1 
_geom_bond_atom_site_label_2 
_geom_bond_distance 
_geom_bond_site_symmetry_2 
_ccdc_geom_bond_type 
O1           C11   1.277       .  A
O1         Cu281   2.005       .  S
O2           C12   1.278       .  A
O2           Cu9   2.004       .  S
O3          C285   1.278       .  A
O3           Cu9   2.011       .  S
O4          C286   1.278       .  A
O4         Cu281   2.012   1_545  S
O5          C286   1.277       .  A
O5          Cu10   2.005   1_545  S
O6          C285   1.276       .  A
O6         Cu282   2.008       .  S
O7           C12   1.278   1_545  A
O7         Cu282   2.007   1_545  S
O8           C11   1.279       .  A
O8          Cu10   2.009       .  S
Cu9         O273   2.005   1_554  S
Cu9         O276   2.012   1_565  S
Cu9        Cu282   2.371       .  S
Cu10        O278   2.008       .  S
Cu10        O279   2.007   1_565  S
Cu10       Cu281   2.371       .  S
C11         C225   1.487       .  S
C12         C237   1.488       .  S
C13         O275   1.278       .  A
C13         O278   1.276       .  A
C13         C264   1.472       .  S
C14         O276   1.278       .  A
C14         O277   1.277       .  A
C14         C252   1.475       .  S
O15          C25   1.279   1_545  A
O15         Cu23   2.014       .  S
O16          C26   1.278       .  A
O16         Cu23   2.000       .  S
O17          C27   1.277       .  A
O17         Cu23   2.007   1_565  S
O18          C28   1.277       .  A
O18         Cu23   2.007       .  S
O19          C28   1.277       .  A
O19         Cu24   2.003       .  S
O20          C27   1.277       .  A
O20         Cu24   2.004   1_565  S
O21          C26   1.278       .  A
O21         Cu24   2.009       .  S
O22          C25   1.278   1_545  A
O22         Cu24   2.002       .  S
Cu23        Cu24   2.372       .  S
C25         C240   1.488       .  S
C26         C228   1.486       .  S
C27         C213   1.469       .  S
C28         C204   1.476       .  S
C29         C249   1.486       .  S
C29          C30   1.400   1_554  A
C29          C34   1.400   1_554  A
C30          C31   1.410       .  A
C30          H35   1.080   1_556  S
C31         C357   1.502       .  S
C31          C32   1.410       .  A
C32          C33   1.410       .  A
C32          H36   1.078       .  S
C33         C359   1.502       .  S
C33          C34   1.409       .  A
C34          H37   1.081   1_556  S
C38         C201   1.490       .  S
C38          C39   1.400       .  A
C38          C43   1.402       .  A
C39          C40   1.406       .  A
C39          H44   1.081       .  S
C40          C94   1.499       .  S
C40          C41   1.409       .  A
C41          C42   1.410       .  A
C41          H45   1.078       .  S
C42          C96   1.504       .  S
C42          C43   1.411       .  A
C43          H46   1.079       .  S
C47         C261   1.480       .  S
C47          C48   1.398       .  A
C47          C52   1.398       .  A
C48          C49   1.410       .  A
C48          H53   1.081       .  S
C49         C339   1.504       .  S
C49          C50   1.410       .  A
C50          C51   1.411       .  A
C50          H54   1.078       .  S
C51         C341   1.501       .  S
C51          C52   1.410       .  A
C52          H55   1.081       .  S
C56         C216   1.479       .  S
C56          C57   1.399       .  A
C56          C61   1.397       .  A
C57          C58   1.412       .  A
C57          H62   1.080       .  S
C58          C76   1.507       .  S
C58          C59   1.413       .  A
C59          C60   1.410       .  A
C59          H63   1.076       .  S
C60          C78   1.498       .  S
C60          C61   1.405       .  A
C61          H64   1.082       .  S
C65         C189   1.487   1_556  S
C65          C66   1.400       .  A
C65         C614   1.399       .  A
C66          C67   1.412       .  A
C66          H71   1.080   1_556  S
C67         C321   1.504       .  S
C67          C68   1.411       .  A
C68         C613   1.409       .  A
C68          H72   1.078       .  S
C69         C323   1.501       .  S
C69          C70   1.407       .  A
C69        C1700   1.409   1_455  A
C70        C1697   1.399   1_455  A
C70          H73   1.081   1_556  S
C74        C1812   1.499       .  S
C74          C79   1.402       .  A
C74        C1707   1.406   1_455  A
C75          C76   1.411       .  A
C75         C618   1.406       .  A
C75          H80   1.076       .  S
C76         C621   1.409       .  A
C77          C78   1.408       .  A
C77        C1708   1.409   1_455  A
C77          H81   1.078       .  S
C78          C79   1.406       .  A
C79          H82   1.081       .  S
C83         C165   1.483       .  S
C83          C84   1.399       .  A
C83         C632   1.399       .  A
C84          C85   1.410       .  A
C84          H89   1.081       .  S
C85         C303   1.502       .  S
C85          C86   1.410       .  A
C86         C631   1.410       .  A
C86          H90   1.078       .  S
C87         C305   1.502       .  S
C87          C88   1.409       .  A
C87        C1718   1.410       .  A
C88        C1715   1.399       .  A
C88          H91   1.081       .  S
C92         C156   1.479       .  S
C92          C93   1.397   1_655  A
C92        C1729   1.398       .  A
C93          C94   1.406       .  A
C93          H98   1.081       .  S
C94          C95   1.410   1_455  A
C95        C1728   1.411       .  A
C95          H99   1.078   1_655  S
C96          C97   1.411       .  A
C96         C639   1.411       .  A
C97         C636   1.398       .  A
C97         H100   1.081       .  S
O101       C1743   1.279       .  A
O101       Cu381   2.013       .  S
O102       C1744   1.278   1_455  A
O102       Cu109   2.003       .  S
O103       C1745   1.277   1_455  A
O103       Cu109   2.005       .  S
O104       C2018   1.277   1_455  A
O104       Cu381   2.006       .  S
O105        C386   1.277       .  A
O105       Cu110   2.010       .  S
O106        C113   1.278       .  A
O106       Cu382   2.012       .  S
O107        C112   1.279       .  A
O107       Cu382   2.014       .  S
O108        C111   1.278       .  A
O108       Cu110   2.000       .  S
Cu109       O373   2.013       .  S
Cu109       O376   2.006       .  S
Cu109     Cu2014   2.373   1_455  S
Cu110       O378   2.012       .  S
Cu110       O379   2.014   1_554  S
Cu110      Cu925   2.373       .  S
C111        O645   1.279       .  A
C111        C141   1.488       .  S
C112        O646   1.278       .  A
C112        C132   1.485       .  S
C113        O647   1.277       .  A
C113        C464   1.475       .  S
C114        O920   1.277       .  A
C114        O377   1.277       .  A
C114        C168   1.473       .  S
O115       C1757   1.278   1_455  A
O115       Cu123   2.005       .  S
O116       C1758   1.278   1_455  A
O116       Cu123   2.010       .  S
O117       C1759   1.276   1_455  A
O117       Cu123   2.004       .  S
O118       C1760   1.278   1_455  A
O118       Cu123   2.002       .  S
O119        C128   1.278       .  A
O119       Cu124   2.010       .  S
O120        C127   1.277       .  A
O120       Cu124   2.008       .  S
O121        C126   1.278       .  A
O121       Cu124   2.003       .  S
O122        C125   1.279       .  A
O122       Cu124   2.013       .  S
Cu123     Cu1756   2.372   1_455  S
Cu124      Cu667   2.372       .  S
C125        O659   1.278       .  A
C125        C144   1.490       .  S
C126        O660   1.278       .  A
C126        C129   1.484       .  S
C127        O661   1.276       .  A
C127        C153   1.469       .  S
C128        O662   1.278       .  A
C128        C177   1.482       .  S
C129        C130   1.405       .  A
C129        C678   1.414       .  A
C130        C131   1.401       .  A
C130        H135   1.085       .  S
C131        C132   1.414       .  A
C131        C138   1.444       .  S
C132        C677   1.405       .  A
C133        C134   1.400       .  A
C133       C1764   1.405   1_455  A
C133        H136   1.085       .  S
C134       C1761   1.414   1_455  A
C134        C137   1.444       .  S
C137        N139   1.157       .  T
C138        N140   1.157       .  T
C141        C142   1.406       .  A
C141        C690   1.415       .  A
C142        C143   1.400       .  A
C142        H147   1.085       .  S
C143        C144   1.416       .  A
C143        C150   1.445       .  S
C144        C689   1.407       .  A
C145        C146   1.401       .  A
C145       C1776   1.407   1_455  A
C145        H148   1.084       .  S
C146       C1773   1.415       .  A
C146        C149   1.445       .  S
C149        N151   1.157       .  T
C150        N152   1.157       .  T
C153        C158   1.410       .  A
C153        C698   1.400       .  A
C154        C155   1.397       .  A
C154       C1785   1.400   1_455  A
C154        H159   1.085       .  S
C155        C156   1.412   1_455  A
C155        C162   1.445       .  S
C156       C1789   1.403       .  A
C157        C158   1.402       .  A
C157        C700   1.403       .  A
C157        H160   1.085       .  S
C158        C161   1.444       .  S
C161        N163   1.157       .  T
C162        N164   1.157       .  T
C165        C710   1.404       .  A
C165        C442   1.412       .  A
C166        C167   1.399       .  A
C166       C1797   1.404       .  A
C166        H171   1.085       .  S
C167       C1800   1.409       .  A
C167        C174   1.445       .  S
C168        C711   1.409       .  A
C168        C441   1.403       .  A
C169        C170   1.403       .  A
C169        C440   1.403       .  A
C169        H172   1.085       .  S
C170        C437   1.412       .  A
C170        C173   1.444       .  S
C173        N175   1.157       .  T
C174        N176   1.157       .  T
C177        C182   1.412       .  A
C177        C722   1.402       .  A
C178        C179   1.399       .  A
C178       C1809   1.402   1_455  A
C178        H183   1.085       .  S
C179       C1812   1.420       .  A
C179        C186   1.445       .  S
C180        C618   1.499       .  S
C180        C181   1.409       .  A
C180        C723   1.420       .  A
C181        C182   1.401       .  A
C181        H184   1.084       .  S
C182        C185   1.444       .  S
C185        N187   1.157       .  T
C186        N188   1.157       .  T
C189        C190   1.405       .  A
C189       C1010   1.415   1_554  A
C190        C191   1.403       .  A
C190        H195   1.084       .  S
C191        C192   1.411       .  A
C191        C198   1.444       .  S
C192        C385   1.475       .  S
C192       C1009   1.401   1_554  A
C193        C194   1.399       .  A
C193       C2096   1.401   1_455  A
C193        H196   1.085       .  S
C194       C2093   1.415   1_455  A
C194        C197   1.445       .  S
C197        N199   1.157       .  T
C198        N200   1.157       .  T
C201        C202   1.406       .  A
C201        C206   1.417       .  A
C202        C203   1.401       .  A
C202        H207   1.084       .  S
C203        C204   1.411       .  A
C203        C210   1.444       .  S
C204        C205   1.401       .  A
C205        C206   1.398       .  A
C205        H208   1.085       .  S
C206        C209   1.445       .  S
C209        N211   1.157       .  T
C210        N212   1.157       .  T
C213        C214   1.400       .  A
C213        C218   1.410       .  A
C214        C215   1.397       .  A
C214        H219   1.085       .  S
C215        C216   1.412       .  A
C215        C222   1.445       .  S
C216        C217   1.404       .  A
C217        C218   1.402       .  A
C217        H220   1.085       .  S
C218        C221   1.444       .  S
C221        N223   1.157       .  T
C222        N224   1.157       .  T
C225        C226   1.406   1_565  A
C225        C230   1.416       .  A
C226        C227   1.400       .  A
C226        H231   1.084       .  S
C227        C228   1.415       .  A
C227        C234   1.444       .  S
C228        C229   1.406   1_545  A
C229        C230   1.399       .  A
C229        H232   1.085       .  S
C230        C233   1.445       .  S
C233        N235   1.157       .  T
C234        N236   1.157       .  T
C237        C238   1.406       .  A
C237        C242   1.416   1_565  A
C238        C239   1.400       .  A
C238        H243   1.085       .  S
C239        C240   1.415       .  A
C239        C246   1.444       .  S
C240        C241   1.406   1_565  A
C241        C242   1.400       .  A
C241        H244   1.085       .  S
C242        C245   1.445       .  S
C245        N247   1.157       .  T
C246        N248   1.157       .  T
C249        C254   1.413       .  A
C249        C522   1.405   1_554  A
C250        C251   1.398       .  A
C250        C521   1.405       .  A
C250        H255   1.085       .  S
C251        C524   1.410       .  A
C251        C258   1.445       .  S
C252        C253   1.404       .  A
C252        C523   1.410   1_554  A
C253        C254   1.403       .  A
C253        H256   1.085       .  S
C254        C257   1.443       .  S
C257        N259   1.157       .  T
C258        N260   1.157       .  T
C261        C262   1.403       .  A
C261        C538   1.411       .  A
C262        C263   1.398       .  A
C262        H267   1.085       .  S
C263        C264   1.408       .  A
C263        C270   1.443       .  S
C264        C537   1.404       .  A
C265        C266   1.403       .  A
C265        C536   1.404       .  A
C265        H268   1.085       .  S
C266        C533   1.411       .  A
C266        C269   1.443       .  S
C269        N271   1.157       .  T
C270        N272   1.157       .  T
O273        C283   1.277       .  A
O274        C284   1.278       .  A
O274       Cu281   2.004       .  S
O275       Cu281   2.011       .  S
O277       Cu282   2.005   1_545  S
O279        C284   1.278   1_545  A
O280        C283   1.279       .  A
O280       Cu282   2.009   1_556  S
C283        C497   1.487       .  S
C284        C509   1.488       .  S
C285        C536   1.472       .  S
C286        C524   1.475       .  S
O287        C297   1.279   1_545  A
O287       Cu295   2.014       .  S
O288        C298   1.278       .  A
O288       Cu295   2.000       .  S
O289        C299   1.277       .  A
O289       Cu295   2.007   1_565  S
O290        C300   1.277       .  A
O290       Cu295   2.007       .  S
O291        C300   1.277       .  A
O291       Cu296   2.003       .  S
O292        C299   1.277       .  A
O292       Cu296   2.003   1_565  S
O293        C298   1.278       .  A
O293       Cu296   2.009       .  S
O294        C297   1.278   1_545  A
O294       Cu296   2.002       .  S
Cu295      Cu296   2.372       .  S
C297        C512   1.488       .  S
C298        C500   1.486       .  S
C299        C485   1.469       .  S
C300        C476   1.476       .  S
C301        C521   1.486       .  S
C301        C302   1.400       .  A
C301        C306   1.400       .  A
C302        C303   1.410       .  A
C302        H307   1.080       .  S
C303        C304   1.410       .  A
C304        C305   1.410       .  A
C304        H308   1.078       .  S
C305        C306   1.409       .  A
C306        H309   1.081       .  S
C310        C473   1.490       .  S
C310        C311   1.400       .  A
C310        C315   1.402       .  A
C311        C312   1.406       .  A
C311        H316   1.081       .  S
C312        C366   1.499       .  S
C312        C313   1.409       .  A
C313        C314   1.410       .  A
C313        H317   1.078       .  S
C314        C368   1.504       .  S
C314        C315   1.411       .  A
C315        H318   1.079       .  S
C319        C533   1.480       .  S
C319        C320   1.398   1_554  A
C319        C324   1.398   1_554  A
C320        C321   1.410       .  A
C320        H325   1.081   1_556  S
C321        C322   1.410       .  A
C322        C323   1.411       .  A
C322        H326   1.078       .  S
C323        C324   1.410       .  A
C324        H327   1.081   1_556  S
C328        C488   1.479       .  S
C328        C329   1.399       .  A
C328        C333   1.397       .  A
C329        C330   1.412       .  A
C329        H334   1.080       .  S
C330        C348   1.507       .  S
C330        C331   1.413       .  A
C331        C332   1.410       .  A
C331        H335   1.076       .  S
C332        C350   1.498       .  S
C332        C333   1.405       .  A
C333        H336   1.082       .  S
C337        C461   1.487       .  S
C337        C338   1.400       .  A
C337        C886   1.399       .  A
C338        C339   1.412       .  A
C338        H343   1.080       .  S
C339        C340   1.411       .  A
C340        C885   1.409       .  A
C340        H344   1.078       .  S
C341       C1972   1.409   1_455  A
C341        C342   1.407       .  A
C342       C1969   1.399   1_455  A
C342        H345   1.081       .  S
C346       C2084   1.499       .  S
C346       C1979   1.406   1_455  A
C346        C351   1.402       .  A
C347        C890   1.406       .  A
C347        C348   1.411       .  A
C347        H352   1.076       .  S
C348        C893   1.409       .  A
C349       C1980   1.409   1_455  A
C349        C350   1.408       .  A
C349        H353   1.078       .  S
C350        C351   1.406       .  A
C351        H354   1.081       .  S
C355        C437   1.483   1_556  S
C355        C356   1.399       .  A
C355        C904   1.399       .  A
C356        C357   1.410       .  A
C356        H361   1.081   1_556  S
C357        C358   1.410       .  A
C358        C903   1.410       .  A
C358        H362   1.078       .  S
C359       C1990   1.410       .  A
C359        C360   1.409       .  A
C360       C1987   1.399       .  A
C360        H363   1.081   1_556  S
C364        C428   1.479       .  S
C364        C365   1.397   1_655  A
C364       C2001   1.398       .  A
C365        C366   1.406       .  A
C365        H370   1.081       .  S
C366        C367   1.410   1_455  A
C367       C2000   1.411       .  A
C367        H371   1.078   1_655  S
C368        C911   1.411       .  A
C368        C369   1.411       .  A
C369        C908   1.398       .  A
C369        H372   1.081       .  S
O373       C2015   1.279       .  A
O374       C2016   1.278   1_455  A
O374       Cu381   2.003   1_556  S
O375       C2017   1.277   1_455  A
O375       Cu381   2.005       .  S
O376       C1746   1.277   1_455  A
O377       Cu382   2.010       .  S
O378        C385   1.278       .  A
O379        C384   1.279       .  A
O380        C383   1.278       .  A
O380       Cu382   2.000       .  S
Cu381     Cu1742   2.373   1_455  S
Cu382      Cu653   2.373       .  S
C383        O917   1.279       .  A
C383        C413   1.488       .  S
C384        O918   1.278       .  A
C384        C404   1.485       .  S
C385        O919   1.277       .  A
C386        O648   1.277       .  A
C386        C440   1.473       .  S
O387       C2029   1.278   1_455  A
O387       Cu395   2.005       .  S
O388       C2030   1.278   1_455  A
O388       Cu395   2.010       .  S
O389       C2031   1.276   1_455  A
O389       Cu395   2.004       .  S
O390       C2032   1.278   1_455  A
O390       Cu395   2.002       .  S
O391        C400   1.278       .  A
O391       Cu396   2.010       .  S
O392        C399   1.277       .  A
O392       Cu396   2.008       .  S
O393        C398   1.278       .  A
O393       Cu396   2.003       .  S
O394        C397   1.279       .  A
O394       Cu396   2.013       .  S
Cu395     Cu2028   2.372   1_455  S
Cu396      Cu939   2.372       .  S
C397        O931   1.278       .  A
C397        C416   1.490       .  S
C398        O932   1.278       .  A
C398        C401   1.484       .  S
C399        O933   1.276       .  A
C399        C425   1.469       .  S
C400        O934   1.278       .  A
C400        C449   1.482       .  S
C401        C402   1.405       .  A
C401        C950   1.414       .  A
C402        C403   1.401       .  A
C402        H407   1.085       .  S
C403        C404   1.414       .  A
C403        C410   1.444       .  S
C404        C949   1.405       .  A
C405       C2036   1.405   1_455  A
C405        C406   1.400       .  A
C405        H408   1.085       .  S
C406       C2033   1.414   1_455  A
C406        C409   1.444       .  S
C409        N411   1.157       .  T
C410        N412   1.157       .  T
C413        C414   1.406       .  A
C413        C962   1.415       .  A
C414        C415   1.400       .  A
C414        H419   1.085       .  S
C415        C416   1.416       .  A
C415        C422   1.445       .  S
C416        C961   1.407       .  A
C417       C2048   1.407   1_455  A
C417        C418   1.401       .  A
C417        H420   1.084       .  S
C418       C2045   1.415       .  A
C418        C421   1.445       .  S
C421        N423   1.157       .  T
C422        N424   1.157       .  T
C425        C970   1.400       .  A
C425        C430   1.410       .  A
C426       C2057   1.400   1_455  A
C426        C427   1.397       .  A
C426        H431   1.085       .  S
C427        C428   1.412   1_455  A
C427        C434   1.445       .  S
C428       C2061   1.403       .  A
C429        C972   1.403       .  A
C429        C430   1.402       .  A
C429        H432   1.085       .  S
C430        C433   1.444       .  S
C433        N435   1.157       .  T
C434        N436   1.157       .  T
C437        C982   1.404   1_554  A
C438       C2069   1.404   1_556  A
C438        C439   1.399       .  A
C438        H443   1.085       .  S
C439       C2072   1.409   1_556  A
C439        C446   1.445       .  S
C440        C983   1.409   1_554  A
C441        C442   1.403       .  A
C441        H444   1.085       .  S
C442        C445   1.444       .  S
C445        N447   1.157       .  T
C446        N448   1.157       .  T
C449        C994   1.402       .  A
C449        C454   1.412       .  A
C450       C2081   1.402   1_455  A
C450        C451   1.399       .  A
C450        H455   1.085       .  S
C451       C2084   1.420       .  A
C451        C458   1.445       .  S
C452        C890   1.499       .  S
C452        C995   1.420       .  A
C452        C453   1.409       .  A
C453        C454   1.401       .  A
C453        H456   1.084       .  S
C454        C457   1.444       .  S
C457        N459   1.157       .  T
C458        N460   1.157       .  T
C461        C462   1.405       .  A
C461        C738   1.415       .  A
C462        C463   1.403       .  A
C462        H467   1.084       .  S
C463        C464   1.411       .  A
C463        C470   1.444       .  S
C464        C737   1.401       .  A
C465       C1824   1.401   1_456  A
C465        C466   1.399       .  A
C465        H468   1.085       .  S
C466       C1821   1.415   1_456  A
C466        C469   1.445       .  S
C469        N471   1.157       .  T
C470        N472   1.157       .  T
C473        C474   1.406       .  A
C473        C478   1.417       .  A
C474        C475   1.401       .  A
C474        H479   1.084       .  S
C475        C476   1.411       .  A
C475        C482   1.444       .  S
C476        C477   1.401       .  A
C477        C478   1.398       .  A
C477        H480   1.085       .  S
C478        C481   1.445       .  S
C481        N483   1.157       .  T
C482        N484   1.157       .  T
C485        C486   1.400       .  A
C485        C490   1.410       .  A
C486        C487   1.397       .  A
C486        H491   1.085       .  S
C487        C488   1.412       .  A
C487        C494   1.445       .  S
C488        C489   1.404       .  A
C489        C490   1.402       .  A
C489        H492   1.085       .  S
C490        C493   1.444       .  S
C493        N495   1.157       .  T
C494        N496   1.157       .  T
C497        C498   1.406   1_565  A
C497        C502   1.416       .  A
C498        C499   1.400       .  A
C498        H503   1.084       .  S
C499        C500   1.415       .  A
C499        C506   1.444       .  S
C500        C501   1.406   1_545  A
C501        C502   1.399       .  A
C501        H504   1.085       .  S
C502        C505   1.445       .  S
C505        N507   1.157       .  T
C506        N508   1.157       .  T
C509        C510   1.406       .  A
C509        C514   1.416   1_565  A
C510        C511   1.400       .  A
C510        H515   1.085       .  S
C511        C512   1.415       .  A
C511        C518   1.444       .  S
C512        C513   1.406   1_565  A
C513        C514   1.400       .  A
C513        H516   1.085       .  S
C514        C517   1.445       .  S
C517        N519   1.157       .  T
C518        N520   1.157       .  T
C521        C526   1.413       .  A
C522        C523   1.398       .  A
C522        H527   1.085       .  S
C523        C530   1.445       .  S
C524        C525   1.404       .  A
C525        C526   1.403       .  A
C525        H528   1.085       .  S
C526        C529   1.443       .  S
C529        N531   1.157       .  T
C530        N532   1.157       .  T
C533        C534   1.403   1_554  A
C534        C535   1.398       .  A
C534        H539   1.085       .  S
C535        C536   1.408   1_556  A
C535        C542   1.443       .  S
C537        C538   1.403       .  A
C537        H540   1.085       .  S
C538        C541   1.443       .  S
C541        N543   1.157       .  T
C542        N544   1.157       .  T
O545        C555   1.277       .  A
O545       Cu825   2.005       .  S
O546        C556   1.278       .  A
O546       Cu553   2.004       .  S
O547        C829   1.278       .  A
O547       Cu553   2.011       .  S
O548        C830   1.278       .  A
O548       Cu825   2.012   1_545  S
O549        C830   1.277       .  A
O549       Cu554   2.005   1_545  S
O550        C829   1.276       .  A
O550       Cu826   2.008       .  S
O551        C556   1.278   1_545  A
O551       Cu826   2.007   1_545  S
O552        C555   1.279       .  A
O552       Cu554   2.009       .  S
Cu553       O817   2.005   1_554  S
Cu553       O820   2.012   1_565  S
Cu553      Cu826   2.371       .  S
Cu554       O822   2.008       .  S
Cu554       O823   2.007   1_565  S
Cu554      Cu825   2.371       .  S
C555        C769   1.487       .  S
C556        C781   1.488       .  S
C557        O819   1.278       .  A
C557        O822   1.276       .  A
C557        C808   1.472       .  S
C558        O820   1.278       .  A
C558        O821   1.277       .  A
C558        C796   1.475       .  S
O559        C569   1.279   1_545  A
O559       Cu567   2.014       .  S
O560        C570   1.278       .  A
O560       Cu567   2.000       .  S
O561        C571   1.277       .  A
O561       Cu567   2.007   1_565  S
O562        C572   1.277       .  A
O562       Cu567   2.007       .  S
O563        C572   1.277       .  A
O563       Cu568   2.003       .  S
O564        C571   1.277       .  A
O564       Cu568   2.003   1_565  S
O565        C570   1.278       .  A
O565       Cu568   2.009       .  S
O566        C569   1.278   1_545  A
O566       Cu568   2.002       .  S
Cu567      Cu568   2.372       .  S
C569        C784   1.488       .  S
C570        C772   1.486       .  S
C571        C757   1.469       .  S
C572        C748   1.476       .  S
C573        C793   1.486       .  S
C573        C574   1.400   1_554  A
C573        C578   1.400   1_554  A
C574        C575   1.410       .  A
C574        H579   1.080   1_556  S
C575        C901   1.502       .  S
C575        C576   1.410       .  A
C576        C577   1.410       .  A
C576        H580   1.078       .  S
C577        C903   1.502       .  S
C577        C578   1.409       .  A
C578        H581   1.081   1_556  S
C582        C745   1.490       .  S
C582        C583   1.400       .  A
C582        C587   1.402       .  A
C583        C584   1.406       .  A
C583        H588   1.081       .  S
C584        C638   1.499       .  S
C584        C585   1.409       .  A
C585        C586   1.410       .  A
C585        H589   1.078       .  S
C586        C640   1.504       .  S
C586        C587   1.411       .  A
C587        H590   1.079       .  S
C591        C805   1.480       .  S
C591        C592   1.398       .  A
C591        C596   1.398       .  A
C592        C593   1.410       .  A
C592        H597   1.081       .  S
C593        C883   1.504       .  S
C593        C594   1.410       .  A
C594        C595   1.411       .  A
C594        H598   1.078       .  S
C595        C885   1.501       .  S
C595        C596   1.410       .  A
C596        H599   1.081       .  S
C600        C760   1.479       .  S
C600        C601   1.399       .  A
C600        C605   1.397       .  A
C601        C602   1.412       .  A
C601        H606   1.080       .  S
C602        C620   1.507       .  S
C602        C603   1.413       .  A
C603        C604   1.410       .  A
C603        H607   1.076       .  S
C604        C622   1.498       .  S
C604        C605   1.405       .  A
C605        H608   1.082       .  S
C609        C733   1.487   1_556  S
C609        C610   1.400       .  A
C609       C1158   1.399       .  A
C610        C611   1.412       .  A
C610        H615   1.080   1_556  S
C611        C865   1.504       .  S
C611        C612   1.411       .  A
C612       C1157   1.409       .  A
C612        H616   1.078       .  S
C613        C867   1.501       .  S
C613        C614   1.407       .  A
C614        H617   1.081   1_556  S
C618        C623   1.402       .  A
C619       C1162   1.406       .  A
C619        C620   1.411       .  A
C619        H624   1.076       .  S
C620       C1165   1.409       .  A
C621        C622   1.408       .  A
C621        H625   1.078       .  S
C622        C623   1.406       .  A
C623        H626   1.081       .  S
C627        C709   1.483       .  S
C627        C628   1.399       .  A
C627       C1176   1.399       .  A
C628        C629   1.410       .  A
C628        H633   1.081       .  S
C629        C847   1.502       .  S
C629        C630   1.410       .  A
C630       C1175   1.410       .  A
C630        H634   1.078       .  S
C631        C849   1.502       .  S
C631        C632   1.409       .  A
C632        H635   1.081       .  S
C636        C700   1.479       .  S
C636        C637   1.397       .  A
C637        C638   1.406       .  A
C637        H642   1.081       .  S
C638        C639   1.410       .  A
C639        H643   1.078       .  S
C640       C1183   1.411       .  A
C640        C641   1.411       .  A
C641       C1180   1.398       .  A
C641        H644   1.081       .  S
O645       Cu925   2.013       .  S
O646       Cu653   2.003       .  S
O647       Cu653   2.005       .  S
O648       Cu925   2.006       .  S
O649        C930   1.277       .  A
O649       Cu654   2.010       .  S
O650        C657   1.278       .  A
O650       Cu926   2.012       .  S
O651        C656   1.279       .  A
O651       Cu926   2.014       .  S
O652        C655   1.278       .  A
O652       Cu654   2.000       .  S
Cu653       O917   2.013       .  S
Cu653       O920   2.006       .  S
Cu654       O922   2.012       .  S
Cu654       O923   2.014   1_554  S
Cu654     Cu1469   2.373       .  S
C655       O1189   1.279       .  A
C655        C685   1.488       .  S
C656       O1190   1.278       .  A
C656        C676   1.485       .  S
C657       O1191   1.277       .  A
C657       C1008   1.475       .  S
C658       O1464   1.277       .  A
C658        O921   1.277       .  A
C658        C712   1.473       .  S
O659       Cu667   2.005       .  S
O660       Cu667   2.010       .  S
O661       Cu667   2.004       .  S
O662       Cu667   2.002       .  S
O663        C672   1.278       .  A
O663       Cu668   2.010       .  S
O664        C671   1.277       .  A
O664       Cu668   2.008       .  S
O665        C670   1.278       .  A
O665       Cu668   2.003       .  S
O666        C669   1.279       .  A
O666       Cu668   2.013       .  S
Cu668     Cu1211   2.372       .  S
C669       O1203   1.278       .  A
C669        C688   1.490       .  S
C670       O1204   1.278       .  A
C670        C673   1.484       .  S
C671       O1205   1.276       .  A
C671        C697   1.469       .  S
C672       O1206   1.278       .  A
C672        C721   1.482       .  S
C673        C674   1.405       .  A
C673       C1222   1.414       .  A
C674        C675   1.401       .  A
C674        H679   1.085       .  S
C675        C676   1.414       .  A
C675        C682   1.444       .  S
C676       C1221   1.405       .  A
C677        C678   1.400       .  A
C677        H680   1.085       .  S
C678        C681   1.444       .  S
C681        N683   1.157       .  T
C682        N684   1.157       .  T
C685        C686   1.406       .  A
C685       C1234   1.415       .  A
C686        C687   1.400       .  A
C686        H691   1.085       .  S
C687        C688   1.416       .  A
C687        C694   1.445       .  S
C688       C1233   1.407       .  A
C689        C690   1.401       .  A
C689        H692   1.084       .  S
C690        C693   1.445       .  S
C693        N695   1.157       .  T
C694        N696   1.157       .  T
C697       C1242   1.400       .  A
C697        C702   1.410       .  A
C698        C699   1.397       .  A
C698        H703   1.085       .  S
C699        C700   1.412       .  A
C699        C706   1.445       .  S
C701       C1244   1.403       .  A
C701        C702   1.402       .  A
C701        H704   1.085       .  S
C702        C705   1.444       .  S
C705        N707   1.157       .  T
C706        N708   1.157       .  T
C709       C1254   1.404       .  A
C709        C986   1.412       .  A
C710        C711   1.399       .  A
C710        H715   1.085       .  S
C711        C718   1.445       .  S
C712       C1255   1.409       .  A
C712        C985   1.403       .  A
C713        C984   1.403       .  A
C713        C714   1.403       .  A
C713        H716   1.085       .  S
C714        C981   1.412       .  A
C714        C717   1.444       .  S
C717        N719   1.157       .  T
C718        N720   1.157       .  T
C721       C1266   1.402       .  A
C721        C726   1.412       .  A
C722        C723   1.399       .  A
C722        H727   1.085       .  S
C723        C730   1.445       .  S
C724       C1162   1.499       .  S
C724       C1267   1.420       .  A
C724        C725   1.409       .  A
C725        C726   1.401       .  A
C725        H728   1.084       .  S
C726        C729   1.444       .  S
C729        N731   1.157       .  T
C730        N732   1.157       .  T
C733        C734   1.405       .  A
C733       C1554   1.415   1_554  A
C734        C735   1.403       .  A
C734        H739   1.084       .  S
C735        C736   1.411       .  A
C735        C742   1.444       .  S
C736        C929   1.475       .  S
C736       C1553   1.401   1_554  A
C737        C738   1.399       .  A
C737        H740   1.085       .  S
C738        C741   1.445       .  S
C741        N743   1.157       .  T
C742        N744   1.157       .  T
C745        C746   1.406       .  A
C745        C750   1.417       .  A
C746        C747   1.401       .  A
C746        H751   1.084       .  S
C747        C748   1.411       .  A
C747        C754   1.444       .  S
C748        C749   1.401       .  A
C749        C750   1.398       .  A
C749        H752   1.085       .  S
C750        C753   1.445       .  S
C753        N755   1.157       .  T
C754        N756   1.157       .  T
C757        C758   1.400       .  A
C757        C762   1.410       .  A
C758        C759   1.397       .  A
C758        H763   1.085       .  S
C759        C760   1.412       .  A
C759        C766   1.445       .  S
C760        C761   1.404       .  A
C761        C762   1.402       .  A
C761        H764   1.085       .  S
C762        C765   1.444       .  S
C765        N767   1.157       .  T
C766        N768   1.157       .  T
C769        C770   1.406   1_565  A
C769        C774   1.416       .  A
C770        C771   1.400       .  A
C770        H775   1.084       .  S
C771        C772   1.415       .  A
C771        C778   1.444       .  S
C772        C773   1.406   1_545  A
C773        C774   1.399       .  A
C773        H776   1.085       .  S
C774        C777   1.445       .  S
C777        N779   1.157       .  T
C778        N780   1.157       .  T
C781        C782   1.406       .  A
C781        C786   1.416   1_565  A
C782        C783   1.400       .  A
C782        H787   1.085       .  S
C783        C784   1.415       .  A
C783        C790   1.444       .  S
C784        C785   1.406   1_565  A
C785        C786   1.400       .  A
C785        H788   1.085       .  S
C786        C789   1.445       .  S
C789        N791   1.157       .  T
C790        N792   1.157       .  T
C793       C1066   1.405   1_554  A
C793        C798   1.413       .  A
C794       C1065   1.405       .  A
C794        C795   1.398       .  A
C794        H799   1.085       .  S
C795       C1068   1.410       .  A
C795        C802   1.445       .  S
C796       C1067   1.410   1_554  A
C796        C797   1.404       .  A
C797        C798   1.403       .  A
C797        H800   1.085       .  S
C798        C801   1.443       .  S
C801        N803   1.157       .  T
C802        N804   1.157       .  T
C805        C806   1.403       .  A
C805       C1082   1.411       .  A
C806        C807   1.398       .  A
C806        H811   1.085       .  S
C807        C808   1.408       .  A
C807        C814   1.443       .  S
C808       C1081   1.404       .  A
C809       C1080   1.404       .  A
C809        C810   1.403       .  A
C809        H812   1.085       .  S
C810       C1077   1.411       .  A
C810        C813   1.443       .  S
C813        N815   1.157       .  T
C814        N816   1.157       .  T
O817        C827   1.277       .  A
O818        C828   1.278       .  A
O818       Cu825   2.004       .  S
O819       Cu825   2.011       .  S
O821       Cu826   2.005   1_545  S
O823        C828   1.278   1_545  A
O824        C827   1.279       .  A
O824       Cu826   2.009   1_556  S
C827       C1041   1.487       .  S
C828       C1053   1.488       .  S
C829       C1080   1.472       .  S
C830       C1068   1.475       .  S
O831        C841   1.279   1_545  A
O831       Cu839   2.014       .  S
O832        C842   1.278       .  A
O832       Cu839   2.000       .  S
O833        C843   1.277       .  A
O833       Cu839   2.007   1_565  S
O834        C844   1.277       .  A
O834       Cu839   2.007       .  S
O835        C844   1.277       .  A
O835       Cu840   2.003       .  S
O836        C843   1.277       .  A
O836       Cu840   2.003   1_565  S
O837        C842   1.278       .  A
O837       Cu840   2.009       .  S
O838        C841   1.278   1_545  A
O838       Cu840   2.002       .  S
Cu839      Cu840   2.372       .  S
C841       C1056   1.488       .  S
C842       C1044   1.486       .  S
C843       C1029   1.469       .  S
C844       C1020   1.476       .  S
C845       C1065   1.486       .  S
C845        C846   1.400       .  A
C845        C850   1.400       .  A
C846        C847   1.410       .  A
C846        H851   1.080       .  S
C847        C848   1.410       .  A
C848        C849   1.410       .  A
C848        H852   1.078       .  S
C849        C850   1.409       .  A
C850        H853   1.081       .  S
C854       C1017   1.490       .  S
C854        C855   1.400       .  A
C854        C859   1.402       .  A
C855        C856   1.406       .  A
C855        H860   1.081       .  S
C856        C910   1.499       .  S
C856        C857   1.409       .  A
C857        C858   1.410       .  A
C857        H861   1.078       .  S
C858        C912   1.504       .  S
C858        C859   1.411       .  A
C859        H862   1.079       .  S
C863       C1077   1.480       .  S
C863        C864   1.398   1_554  A
C863        C868   1.398   1_554  A
C864        C865   1.410       .  A
C864        H869   1.081   1_556  S
C865        C866   1.410       .  A
C866        C867   1.411       .  A
C866        H870   1.078       .  S
C867        C868   1.410       .  A
C868        H871   1.081   1_556  S
C872       C1032   1.479       .  S
C872        C873   1.399       .  A
C872        C877   1.397       .  A
C873        C874   1.412       .  A
C873        H878   1.080       .  S
C874        C892   1.507       .  S
C874        C875   1.413       .  A
C875        C876   1.410       .  A
C875        H879   1.076       .  S
C876        C894   1.498       .  S
C876        C877   1.405       .  A
C877        H880   1.082       .  S
C881       C1005   1.487       .  S
C881        C882   1.400       .  A
C881       C1430   1.399       .  A
C882        C883   1.412       .  A
C882        H887   1.080       .  S
C883        C884   1.411       .  A
C884       C1429   1.409       .  A
C884        H888   1.078       .  S
C885        C886   1.407       .  A
C886        H889   1.081       .  S
C890        C895   1.402       .  A
C891       C1434   1.406       .  A
C891        C892   1.411       .  A
C891        H896   1.076       .  S
C892       C1437   1.409       .  A
C893        C894   1.408       .  A
C893        H897   1.078       .  S
C894        C895   1.406       .  A
C895        H898   1.081       .  S
C899        C981   1.483   1_556  S
C899        C900   1.399       .  A
C899       C1448   1.399       .  A
C900        C901   1.410       .  A
C900        H905   1.081   1_556  S
C901        C902   1.410       .  A
C902       C1447   1.410       .  A
C902        H906   1.078       .  S
C903        C904   1.409       .  A
C904        H907   1.081   1_556  S
C908        C972   1.479       .  S
C908        C909   1.397       .  A
C909        C910   1.406       .  A
C909        H914   1.081       .  S
C910        C911   1.410       .  A
C911        H915   1.078       .  S
C912       C1455   1.411       .  A
C912        C913   1.411       .  A
C913       C1452   1.398       .  A
C913        H916   1.081       .  S
O918       Cu925   2.003   1_556  S
O919       Cu925   2.005       .  S
O921       Cu926   2.010       .  S
O922        C929   1.278       .  A
O923        C928   1.279       .  A
O924        C927   1.278       .  A
O924       Cu926   2.000       .  S
Cu926     Cu1197   2.373       .  S
C927       O1461   1.279       .  A
C927        C957   1.488       .  S
C928       O1462   1.278       .  A
C928        C948   1.485       .  S
C929       O1463   1.277       .  A
C930       O1192   1.277       .  A
C930        C984   1.473       .  S
O931       Cu939   2.005       .  S
O932       Cu939   2.010       .  S
O933       Cu939   2.004       .  S
O934       Cu939   2.002       .  S
O935        C944   1.278       .  A
O935       Cu940   2.010       .  S
O936        C943   1.277       .  A
O936       Cu940   2.008       .  S
O937        C942   1.278       .  A
O937       Cu940   2.003       .  S
O938        C941   1.279       .  A
O938       Cu940   2.013       .  S
Cu940     Cu1483   2.372       .  S
C941       O1475   1.278       .  A
C941        C960   1.490       .  S
C942       O1476   1.278       .  A
C942        C945   1.484       .  S
C943       O1477   1.276       .  A
C943        C969   1.469       .  S
C944       O1478   1.278       .  A
C944        C993   1.482       .  S
C945        C946   1.405       .  A
C945       C1494   1.414       .  A
C946        C947   1.401       .  A
C946        H951   1.085       .  S
C947        C948   1.414       .  A
C947        C954   1.444       .  S
C948       C1493   1.405       .  A
C949        C950   1.400       .  A
C949        H952   1.085       .  S
C950        C953   1.444       .  S
C953        N955   1.157       .  T
C954        N956   1.157       .  T
C957        C958   1.406       .  A
C957       C1506   1.415       .  A
C958        C959   1.400       .  A
C958        H963   1.085       .  S
C959        C960   1.416       .  A
C959        C966   1.445       .  S
C960       C1505   1.407       .  A
C961        C962   1.401       .  A
C961        H964   1.084       .  S
C962        C965   1.445       .  S
C965        N967   1.157       .  T
C966        N968   1.157       .  T
C969       C1514   1.400       .  A
C969        C974   1.410       .  A
C970        C971   1.397       .  A
C970        H975   1.085       .  S
C971        C972   1.412       .  A
C971        C978   1.445       .  S
C973       C1516   1.403       .  A
C973        C974   1.402       .  A
C973        H976   1.085       .  S
C974        C977   1.444       .  S
C977        N979   1.157       .  T
C978        N980   1.157       .  T
C981       C1526   1.404   1_554  A
C982        C983   1.399       .  A
C982        H987   1.085       .  S
C983        C990   1.445       .  S
C984       C1527   1.409   1_554  A
C985        C986   1.403       .  A
C985        H988   1.085       .  S
C986        C989   1.444       .  S
C989        N991   1.157       .  T
C990        N992   1.157       .  T
C993       C1538   1.402       .  A
C993        C998   1.412       .  A
C994        C995   1.399       .  A
C994        H999   1.085       .  S
C995       C1002   1.445       .  S
C996       C1434   1.499       .  S
C996       C1539   1.420       .  A
C996        C997   1.409       .  A
C997        C998   1.401       .  A
C997       H1000   1.084       .  S
C998       C1001   1.444       .  S
C1001      N1003   1.157       .  T
C1002      N1004   1.157       .  T
C1005      C1006   1.405       .  A
C1005      C1282   1.415       .  A
C1006      C1007   1.403       .  A
C1006      H1011   1.084       .  S
C1007      C1008   1.411       .  A
C1007      C1014   1.444       .  S
C1008      C1281   1.401       .  A
C1009      C1010   1.399       .  A
C1009      H1012   1.085       .  S
C1010      C1013   1.445       .  S
C1013      N1015   1.157       .  T
C1014      N1016   1.157       .  T
C1017      C1018   1.406       .  A
C1017      C1022   1.417       .  A
C1018      C1019   1.401       .  A
C1018      H1023   1.084       .  S
C1019      C1020   1.411       .  A
C1019      C1026   1.444       .  S
C1020      C1021   1.401       .  A
C1021      C1022   1.398       .  A
C1021      H1024   1.085       .  S
C1022      C1025   1.445       .  S
C1025      N1027   1.157       .  T
C1026      N1028   1.157       .  T
C1029      C1030   1.400       .  A
C1029      C1034   1.410       .  A
C1030      C1031   1.397       .  A
C1030      H1035   1.085       .  S
C1031      C1032   1.412       .  A
C1031      C1038   1.445       .  S
C1032      C1033   1.404       .  A
C1033      C1034   1.402       .  A
C1033      H1036   1.085       .  S
C1034      C1037   1.444       .  S
C1037      N1039   1.157       .  T
C1038      N1040   1.157       .  T
C1041      C1042   1.406   1_565  A
C1041      C1046   1.416       .  A
C1042      C1043   1.400       .  A
C1042      H1047   1.084       .  S
C1043      C1044   1.415       .  A
C1043      C1050   1.444       .  S
C1044      C1045   1.406   1_545  A
C1045      C1046   1.399       .  A
C1045      H1048   1.085       .  S
C1046      C1049   1.445       .  S
C1049      N1051   1.157       .  T
C1050      N1052   1.157       .  T
C1053      C1054   1.406       .  A
C1053      C1058   1.416   1_565  A
C1054      C1055   1.400       .  A
C1054      H1059   1.085       .  S
C1055      C1056   1.415       .  A
C1055      C1062   1.444       .  S
C1056      C1057   1.406   1_565  A
C1057      C1058   1.400       .  A
C1057      H1060   1.085       .  S
C1058      C1061   1.445       .  S
C1061      N1063   1.157       .  T
C1062      N1064   1.157       .  T
C1065      C1070   1.413       .  A
C1066      C1067   1.398       .  A
C1066      H1071   1.085       .  S
C1067      C1074   1.445       .  S
C1068      C1069   1.404       .  A
C1069      C1070   1.403       .  A
C1069      H1072   1.085       .  S
C1070      C1073   1.443       .  S
C1073      N1075   1.157       .  T
C1074      N1076   1.157       .  T
C1077      C1078   1.403   1_554  A
C1078      C1079   1.398       .  A
C1078      H1083   1.085       .  S
C1079      C1080   1.408   1_556  A
C1079      C1086   1.443       .  S
C1081      C1082   1.403       .  A
C1081      H1084   1.085       .  S
C1082      C1085   1.443       .  S
C1085      N1087   1.157       .  T
C1086      N1088   1.157       .  T
O1089      C1099   1.277       .  A
O1089     Cu1369   2.005       .  S
O1090      C1100   1.278       .  A
O1090     Cu1097   2.004       .  S
O1091      C1373   1.278       .  A
O1091     Cu1097   2.011       .  S
O1092      C1374   1.278       .  A
O1092     Cu1369   2.012   1_545  S
O1093      C1374   1.277       .  A
O1093     Cu1098   2.005   1_545  S
O1094      C1373   1.276       .  A
O1094     Cu1370   2.008       .  S
O1095      C1100   1.278   1_545  A
O1095     Cu1370   2.007   1_545  S
O1096      C1099   1.279       .  A
O1096     Cu1098   2.009       .  S
Cu1097     O1361   2.005   1_554  S
Cu1097     O1364   2.012   1_565  S
Cu1097    Cu1370   2.371       .  S
Cu1098     O1366   2.008       .  S
Cu1098     O1367   2.007   1_565  S
Cu1098    Cu1369   2.371       .  S
C1099      C1313   1.487       .  S
C1100      C1325   1.488       .  S
C1101      O1363   1.278       .  A
C1101      O1366   1.276       .  A
C1101      C1352   1.472       .  S
C1102      O1364   1.278       .  A
C1102      O1365   1.277       .  A
C1102      C1340   1.475       .  S
O1103      C1113   1.279   1_545  A
O1103     Cu1111   2.014       .  S
O1104      C1114   1.278       .  A
O1104     Cu1111   2.000       .  S
O1105      C1115   1.277       .  A
O1105     Cu1111   2.007   1_565  S
O1106      C1116   1.277       .  A
O1106     Cu1111   2.007       .  S
O1107      C1116   1.277       .  A
O1107     Cu1112   2.003       .  S
O1108      C1115   1.277       .  A
O1108     Cu1112   2.004   1_565  S
O1109      C1114   1.278       .  A
O1109     Cu1112   2.009       .  S
O1110      C1113   1.278   1_545  A
O1110     Cu1112   2.002       .  S
Cu1111    Cu1112   2.372       .  S
C1113      C1328   1.488       .  S
C1114      C1316   1.486       .  S
C1115      C1301   1.469       .  S
C1116      C1292   1.476       .  S
C1117      C1337   1.486       .  S
C1117      C1118   1.400   1_554  A
C1117      C1122   1.400   1_554  A
C1118      C1119   1.410       .  A
C1118      H1123   1.080   1_556  S
C1119      C1445   1.502       .  S
C1119      C1120   1.410       .  A
C1120      C1121   1.410       .  A
C1120      H1124   1.078       .  S
C1121      C1447   1.502       .  S
C1121      C1122   1.409       .  A
C1122      H1125   1.081   1_556  S
C1126      C1289   1.490       .  S
C1126      C1127   1.400       .  A
C1126      C1131   1.402       .  A
C1127      C1128   1.406       .  A
C1127      H1132   1.081       .  S
C1128      C1182   1.499       .  S
C1128      C1129   1.409       .  A
C1129      C1130   1.410       .  A
C1129      H1133   1.078       .  S
C1130      C1184   1.504       .  S
C1130      C1131   1.411       .  A
C1131      H1134   1.079       .  S
C1135      C1349   1.480       .  S
C1135      C1136   1.398       .  A
C1135      C1140   1.398       .  A
C1136      C1137   1.410       .  A
C1136      H1141   1.081       .  S
C1137      C1427   1.504       .  S
C1137      C1138   1.410       .  A
C1138      C1139   1.411       .  A
C1138      H1142   1.078       .  S
C1139      C1429   1.501       .  S
C1139      C1140   1.410       .  A
C1140      H1143   1.081       .  S
C1144      C1304   1.479       .  S
C1144      C1145   1.399       .  A
C1144      C1149   1.397       .  A
C1145      C1146   1.412       .  A
C1145      H1150   1.080       .  S
C1146      C1164   1.507       .  S
C1146      C1147   1.413       .  A
C1147      C1148   1.410       .  A
C1147      H1151   1.076       .  S
C1148      C1166   1.498       .  S
C1148      C1149   1.405       .  A
C1149      H1152   1.082       .  S
C1153      C1277   1.487   1_556  S
C1153      C1154   1.400       .  A
C1153      C1702   1.399       .  A
C1154      C1155   1.412       .  A
C1154      H1159   1.080   1_556  S
C1155      C1409   1.504       .  S
C1155      C1156   1.411       .  A
C1156      C1701   1.409       .  A
C1156      H1160   1.078       .  S
C1157      C1411   1.501       .  S
C1157      C1158   1.407       .  A
C1158      H1161   1.081   1_556  S
C1162      C1167   1.402       .  A
C1163      C1706   1.406       .  A
C1163      C1164   1.411       .  A
C1163      H1168   1.076       .  S
C1164      C1709   1.409       .  A
C1165      C1166   1.408       .  A
C1165      H1169   1.078       .  S
C1166      C1167   1.406       .  A
C1167      H1170   1.081       .  S
C1171      C1253   1.483       .  S
C1171      C1172   1.399       .  A
C1171      C1720   1.399       .  A
C1172      C1173   1.410       .  A
C1172      H1177   1.081       .  S
C1173      C1391   1.502       .  S
C1173      C1174   1.410       .  A
C1174      C1719   1.410       .  A
C1174      H1178   1.078       .  S
C1175      C1393   1.502       .  S
C1175      C1176   1.409       .  A
C1176      H1179   1.081       .  S
C1180      C1244   1.479       .  S
C1180      C1181   1.397       .  A
C1181      C1182   1.406       .  A
C1181      H1186   1.081       .  S
C1182      C1183   1.410       .  A
C1183      H1187   1.078       .  S
C1184      C1727   1.411       .  A
C1184      C1185   1.411       .  A
C1185      C1724   1.398       .  A
C1185      H1188   1.081       .  S
O1189     Cu1469   2.013       .  S
O1190     Cu1197   2.003       .  S
O1191     Cu1197   2.005       .  S
O1192     Cu1469   2.006       .  S
O1193      C1474   1.277       .  A
O1193     Cu1198   2.010       .  S
O1194      C1201   1.278       .  A
O1194     Cu1470   2.012       .  S
O1195      C1200   1.279       .  A
O1195     Cu1470   2.014       .  S
O1196      C1199   1.278       .  A
O1196     Cu1198   2.000       .  S
Cu1197     O1461   2.013       .  S
Cu1197     O1464   2.006       .  S
Cu1198     O1466   2.012       .  S
Cu1198     O1467   2.014   1_554  S
Cu1198    Cu2013   2.373       .  S
C1199      O1733   1.279       .  A
C1199      C1229   1.488       .  S
C1200      O1734   1.278       .  A
C1200      C1220   1.485       .  S
C1201      O1735   1.277       .  A
C1201      C1552   1.475       .  S
C1202      O2008   1.277       .  A
C1202      O1465   1.277       .  A
C1202      C1256   1.473       .  S
O1203     Cu1211   2.005       .  S
O1204     Cu1211   2.010       .  S
O1205     Cu1211   2.004       .  S
O1206     Cu1211   2.002       .  S
O1207      C1216   1.278       .  A
O1207     Cu1212   2.010       .  S
O1208      C1215   1.277       .  A
O1208     Cu1212   2.008       .  S
O1209      C1214   1.278       .  A
O1209     Cu1212   2.003       .  S
O1210      C1213   1.279       .  A
O1210     Cu1212   2.013       .  S
Cu1212    Cu1755   2.372       .  S
C1213      O1747   1.278       .  A
C1213      C1232   1.490       .  S
C1214      O1748   1.278       .  A
C1214      C1217   1.484       .  S
C1215      O1749   1.276       .  A
C1215      C1241   1.469       .  S
C1216      O1750   1.278       .  A
C1216      C1265   1.482       .  S
C1217      C1218   1.405       .  A
C1217      C1766   1.414       .  A
C1218      C1219   1.401       .  A
C1218      H1223   1.085       .  S
C1219      C1220   1.414       .  A
C1219      C1226   1.444       .  S
C1220      C1765   1.405       .  A
C1221      C1222   1.400       .  A
C1221      H1224   1.085       .  S
C1222      C1225   1.444       .  S
C1225      N1227   1.157       .  T
C1226      N1228   1.157       .  T
C1229      C1230   1.406       .  A
C1229      C1778   1.415       .  A
C1230      C1231   1.400       .  A
C1230      H1235   1.085       .  S
C1231      C1232   1.416       .  A
C1231      C1238   1.445       .  S
C1232      C1777   1.407       .  A
C1233      C1234   1.401       .  A
C1233      H1236   1.084       .  S
C1234      C1237   1.445       .  S
C1237      N1239   1.157       .  T
C1238      N1240   1.157       .  T
C1241      C1786   1.400       .  A
C1241      C1246   1.410       .  A
C1242      C1243   1.397       .  A
C1242      H1247   1.085       .  S
C1243      C1244   1.412       .  A
C1243      C1250   1.445       .  S
C1245      C1788   1.403       .  A
C1245      C1246   1.402       .  A
C1245      H1248   1.085       .  S
C1246      C1249   1.444       .  S
C1249      N1251   1.157       .  T
C1250      N1252   1.157       .  T
C1253      C1798   1.404       .  A
C1253      C1530   1.412       .  A
C1254      C1255   1.399       .  A
C1254      H1259   1.085       .  S
C1255      C1262   1.445       .  S
C1256      C1799   1.409       .  A
C1256      C1529   1.403       .  A
C1257      C1528   1.403       .  A
C1257      C1258   1.403       .  A
C1257      H1260   1.085       .  S
C1258      C1525   1.412       .  A
C1258      C1261   1.444       .  S
C1261      N1263   1.157       .  T
C1262      N1264   1.157       .  T
C1265      C1810   1.402       .  A
C1265      C1270   1.412       .  A
C1266      C1267   1.399       .  A
C1266      H1271   1.085       .  S
C1267      C1274   1.445       .  S
C1268      C1706   1.499       .  S
C1268      C1811   1.420       .  A
C1268      C1269   1.409       .  A
C1269      C1270   1.401       .  A
C1269      H1272   1.084       .  S
C1270      C1273   1.444       .  S
C1273      N1275   1.157       .  T
C1274      N1276   1.157       .  T
C1277      C1278   1.405       .  A
C1277      C2098   1.415   1_554  A
C1278      C1279   1.403       .  A
C1278      H1283   1.084       .  S
C1279      C1280   1.411       .  A
C1279      C1286   1.444       .  S
C1280      C1473   1.475       .  S
C1280      C2097   1.401   1_554  A
C1281      C1282   1.399       .  A
C1281      H1284   1.085       .  S
C1282      C1285   1.445       .  S
C1285      N1287   1.157       .  T
C1286      N1288   1.157       .  T
C1289      C1290   1.406       .  A
C1289      C1294   1.417       .  A
C1290      C1291   1.401       .  A
C1290      H1295   1.084       .  S
C1291      C1292   1.411       .  A
C1291      C1298   1.444       .  S
C1292      C1293   1.401       .  A
C1293      C1294   1.398       .  A
C1293      H1296   1.085       .  S
C1294      C1297   1.445       .  S
C1297      N1299   1.157       .  T
C1298      N1300   1.157       .  T
C1301      C1302   1.400       .  A
C1301      C1306   1.410       .  A
C1302      C1303   1.397       .  A
C1302      H1307   1.085       .  S
C1303      C1304   1.412       .  A
C1303      C1310   1.445       .  S
C1304      C1305   1.404       .  A
C1305      C1306   1.402       .  A
C1305      H1308   1.085       .  S
C1306      C1309   1.444       .  S
C1309      N1311   1.157       .  T
C1310      N1312   1.157       .  T
C1313      C1314   1.406   1_565  A
C1313      C1318   1.416       .  A
C1314      C1315   1.400       .  A
C1314      H1319   1.084       .  S
C1315      C1316   1.415       .  A
C1315      C1322   1.444       .  S
C1316      C1317   1.406   1_545  A
C1317      C1318   1.399       .  A
C1317      H1320   1.085       .  S
C1318      C1321   1.445       .  S
C1321      N1323   1.157       .  T
C1322      N1324   1.157       .  T
C1325      C1326   1.406       .  A
C1325      C1330   1.416   1_565  A
C1326      C1327   1.400       .  A
C1326      H1331   1.085       .  S
C1327      C1328   1.415       .  A
C1327      C1334   1.444       .  S
C1328      C1329   1.406   1_565  A
C1329      C1330   1.400       .  A
C1329      H1332   1.085       .  S
C1330      C1333   1.445       .  S
C1333      N1335   1.157       .  T
C1334      N1336   1.157       .  T
C1337      C1610   1.405   1_554  A
C1337      C1342   1.413       .  A
C1338      C1609   1.405       .  A
C1338      C1339   1.398       .  A
C1338      H1343   1.085       .  S
C1339      C1612   1.410       .  A
C1339      C1346   1.445       .  S
C1340      C1611   1.410   1_554  A
C1340      C1341   1.404       .  A
C1341      C1342   1.403       .  A
C1341      H1344   1.085       .  S
C1342      C1345   1.443       .  S
C1345      N1347   1.157       .  T
C1346      N1348   1.157       .  T
C1349      C1350   1.403       .  A
C1349      C1626   1.411       .  A
C1350      C1351   1.398       .  A
C1350      H1355   1.085       .  S
C1351      C1352   1.408       .  A
C1351      C1358   1.443       .  S
C1352      C1625   1.404       .  A
C1353      C1624   1.404       .  A
C1353      C1354   1.403       .  A
C1353      H1356   1.085       .  S
C1354      C1621   1.411       .  A
C1354      C1357   1.443       .  S
C1357      N1359   1.157       .  T
C1358      N1360   1.157       .  T
O1361      C1371   1.277       .  A
O1362      C1372   1.278       .  A
O1362     Cu1369   2.004       .  S
O1363     Cu1369   2.011       .  S
O1365     Cu1370   2.005   1_545  S
O1367      C1372   1.278   1_545  A
O1368      C1371   1.279       .  A
O1368     Cu1370   2.009   1_556  S
C1371      C1585   1.487       .  S
C1372      C1597   1.488       .  S
C1373      C1624   1.472       .  S
C1374      C1612   1.475       .  S
O1375      C1385   1.279   1_545  A
O1375     Cu1383   2.014       .  S
O1376      C1386   1.278       .  A
O1376     Cu1383   2.000       .  S
O1377      C1387   1.277       .  A
O1377     Cu1383   2.007   1_565  S
O1378      C1388   1.277       .  A
O1378     Cu1383   2.007       .  S
O1379      C1388   1.277       .  A
O1379     Cu1384   2.003       .  S
O1380      C1387   1.277       .  A
O1380     Cu1384   2.003   1_565  S
O1381      C1386   1.278       .  A
O1381     Cu1384   2.009       .  S
O1382      C1385   1.278   1_545  A
O1382     Cu1384   2.002       .  S
Cu1383    Cu1384   2.372       .  S
C1385      C1600   1.488       .  S
C1386      C1588   1.486       .  S
C1387      C1573   1.469       .  S
C1388      C1564   1.476       .  S
C1389      C1609   1.486       .  S
C1389      C1390   1.400       .  A
C1389      C1394   1.400       .  A
C1390      C1391   1.410       .  A
C1390      H1395   1.080       .  S
C1391      C1392   1.410       .  A
C1392      C1393   1.410       .  A
C1392      H1396   1.078       .  S
C1393      C1394   1.409       .  A
C1394      H1397   1.081       .  S
C1398      C1561   1.490       .  S
C1398      C1399   1.400       .  A
C1398      C1403   1.402       .  A
C1399      C1400   1.406       .  A
C1399      H1404   1.081       .  S
C1400      C1454   1.499       .  S
C1400      C1401   1.409       .  A
C1401      C1402   1.410       .  A
C1401      H1405   1.078       .  S
C1402      C1456   1.504       .  S
C1402      C1403   1.411       .  A
C1403      H1406   1.079       .  S
C1407      C1621   1.480       .  S
C1407      C1408   1.398   1_554  A
C1407      C1412   1.398   1_554  A
C1408      C1409   1.410       .  A
C1408      H1413   1.081   1_556  S
C1409      C1410   1.410       .  A
C1410      C1411   1.411       .  A
C1410      H1414   1.078       .  S
C1411      C1412   1.410       .  A
C1412      H1415   1.081   1_556  S
C1416      C1576   1.479       .  S
C1416      C1417   1.399       .  A
C1416      C1421   1.397       .  A
C1417      C1418   1.412       .  A
C1417      H1422   1.080       .  S
C1418      C1436   1.507       .  S
C1418      C1419   1.413       .  A
C1419      C1420   1.410       .  A
C1419      H1423   1.076       .  S
C1420      C1438   1.498       .  S
C1420      C1421   1.405       .  A
C1421      H1424   1.082       .  S
C1425      C1549   1.487       .  S
C1425      C1426   1.400       .  A
C1425      C1974   1.399       .  A
C1426      C1427   1.412       .  A
C1426      H1431   1.080       .  S
C1427      C1428   1.411       .  A
C1428      C1973   1.409       .  A
C1428      H1432   1.078       .  S
C1429      C1430   1.407       .  A
C1430      H1433   1.081       .  S
C1434      C1439   1.402       .  A
C1435      C1978   1.406       .  A
C1435      C1436   1.411       .  A
C1435      H1440   1.076       .  S
C1436      C1981   1.409       .  A
C1437      C1438   1.408       .  A
C1437      H1441   1.078       .  S
C1438      C1439   1.406       .  A
C1439      H1442   1.081       .  S
C1443      C1525   1.483   1_556  S
C1443      C1444   1.399       .  A
C1443      C1992   1.399       .  A
C1444      C1445   1.410       .  A
C1444      H1449   1.081   1_556  S
C1445      C1446   1.410       .  A
C1446      C1991   1.410       .  A
C1446      H1450   1.078       .  S
C1447      C1448   1.409       .  A
C1448      H1451   1.081   1_556  S
C1452      C1516   1.479       .  S
C1452      C1453   1.397       .  A
C1453      C1454   1.406       .  A
C1453      H1458   1.081       .  S
C1454      C1455   1.410       .  A
C1455      H1459   1.078       .  S
C1456      C1999   1.411       .  A
C1456      C1457   1.411       .  A
C1457      C1996   1.398       .  A
C1457      H1460   1.081       .  S
O1462     Cu1469   2.003   1_556  S
O1463     Cu1469   2.005       .  S
O1465     Cu1470   2.010       .  S
O1466      C1473   1.278       .  A
O1467      C1472   1.279       .  A
O1468      C1471   1.278       .  A
O1468     Cu1470   2.000       .  S
Cu1470    Cu1741   2.373       .  S
C1471      O2005   1.279       .  A
C1471      C1501   1.488       .  S
C1472      O2006   1.278       .  A
C1472      C1492   1.485       .  S
C1473      O2007   1.277       .  A
C1474      O1736   1.277       .  A
C1474      C1528   1.473       .  S
O1475     Cu1483   2.005       .  S
O1476     Cu1483   2.010       .  S
O1477     Cu1483   2.004       .  S
O1478     Cu1483   2.002       .  S
O1479      C1488   1.278       .  A
O1479     Cu1484   2.010       .  S
O1480      C1487   1.277       .  A
O1480     Cu1484   2.008       .  S
O1481      C1486   1.278       .  A
O1481     Cu1484   2.003       .  S
O1482      C1485   1.279       .  A
O1482     Cu1484   2.013       .  S
Cu1484    Cu2027   2.372       .  S
C1485      O2019   1.278       .  A
C1485      C1504   1.490       .  S
C1486      O2020   1.278       .  A
C1486      C1489   1.484       .  S
C1487      O2021   1.276       .  A
C1487      C1513   1.469       .  S
C1488      O2022   1.278       .  A
C1488      C1537   1.482       .  S
C1489      C1490   1.405       .  A
C1489      C2038   1.414       .  A
C1490      C1491   1.401       .  A
C1490      H1495   1.085       .  S
C1491      C1492   1.414       .  A
C1491      C1498   1.444       .  S
C1492      C2037   1.405       .  A
C1493      C1494   1.400       .  A
C1493      H1496   1.085       .  S
C1494      C1497   1.444       .  S
C1497      N1499   1.157       .  T
C1498      N1500   1.157       .  T
C1501      C1502   1.406       .  A
C1501      C2050   1.415       .  A
C1502      C1503   1.400       .  A
C1502      H1507   1.085       .  S
C1503      C1504   1.416       .  A
C1503      C1510   1.445       .  S
C1504      C2049   1.407       .  A
C1505      C1506   1.401       .  A
C1505      H1508   1.084       .  S
C1506      C1509   1.445       .  S
C1509      N1511   1.157       .  T
C1510      N1512   1.157       .  T
C1513      C2058   1.400       .  A
C1513      C1518   1.410       .  A
C1514      C1515   1.397       .  A
C1514      H1519   1.085       .  S
C1515      C1516   1.412       .  A
C1515      C1522   1.445       .  S
C1517      C2060   1.403       .  A
C1517      C1518   1.402       .  A
C1517      H1520   1.085       .  S
C1518      C1521   1.444       .  S
C1521      N1523   1.157       .  T
C1522      N1524   1.157       .  T
C1525      C2070   1.404   1_554  A
C1526      C1527   1.399       .  A
C1526      H1531   1.085       .  S
C1527      C1534   1.445       .  S
C1528      C2071   1.409   1_554  A
C1529      C1530   1.403       .  A
C1529      H1532   1.085       .  S
C1530      C1533   1.444       .  S
C1533      N1535   1.157       .  T
C1534      N1536   1.157       .  T
C1537      C2082   1.402       .  A
C1537      C1542   1.412       .  A
C1538      C1539   1.399       .  A
C1538      H1543   1.085       .  S
C1539      C1546   1.445       .  S
C1540      C1978   1.499       .  S
C1540      C2083   1.420       .  A
C1540      C1541   1.409       .  A
C1541      C1542   1.401       .  A
C1541      H1544   1.084       .  S
C1542      C1545   1.444       .  S
C1545      N1547   1.157       .  T
C1546      N1548   1.157       .  T
C1549      C1550   1.405       .  A
C1549      C1826   1.415       .  A
C1550      C1551   1.403       .  A
C1550      H1555   1.084       .  S
C1551      C1552   1.411       .  A
C1551      C1558   1.444       .  S
C1552      C1825   1.401       .  A
C1553      C1554   1.399       .  A
C1553      H1556   1.085       .  S
C1554      C1557   1.445       .  S
C1557      N1559   1.157       .  T
C1558      N1560   1.157       .  T
C1561      C1562   1.406       .  A
C1561      C1566   1.417       .  A
C1562      C1563   1.401       .  A
C1562      H1567   1.084       .  S
C1563      C1564   1.411       .  A
C1563      C1570   1.444       .  S
C1564      C1565   1.401       .  A
C1565      C1566   1.398       .  A
C1565      H1568   1.085       .  S
C1566      C1569   1.445       .  S
C1569      N1571   1.157       .  T
C1570      N1572   1.157       .  T
C1573      C1574   1.400       .  A
C1573      C1578   1.410       .  A
C1574      C1575   1.397       .  A
C1574      H1579   1.085       .  S
C1575      C1576   1.412       .  A
C1575      C1582   1.445       .  S
C1576      C1577   1.404       .  A
C1577      C1578   1.402       .  A
C1577      H1580   1.085       .  S
C1578      C1581   1.444       .  S
C1581      N1583   1.157       .  T
C1582      N1584   1.157       .  T
C1585      C1586   1.406   1_565  A
C1585      C1590   1.416       .  A
C1586      C1587   1.400       .  A
C1586      H1591   1.084       .  S
C1587      C1588   1.415       .  A
C1587      C1594   1.444       .  S
C1588      C1589   1.406   1_545  A
C1589      C1590   1.399       .  A
C1589      H1592   1.085       .  S
C1590      C1593   1.445       .  S
C1593      N1595   1.157       .  T
C1594      N1596   1.157       .  T
C1597      C1598   1.406       .  A
C1597      C1602   1.416   1_565  A
C1598      C1599   1.400       .  A
C1598      H1603   1.085       .  S
C1599      C1600   1.415       .  A
C1599      C1606   1.444       .  S
C1600      C1601   1.406   1_565  A
C1601      C1602   1.400       .  A
C1601      H1604   1.085       .  S
C1602      C1605   1.445       .  S
C1605      N1607   1.157       .  T
C1606      N1608   1.157       .  T
C1609      C1614   1.413       .  A
C1610      C1611   1.398       .  A
C1610      H1615   1.085       .  S
C1611      C1618   1.445       .  S
C1612      C1613   1.404       .  A
C1613      C1614   1.403       .  A
C1613      H1616   1.085       .  S
C1614      C1617   1.443       .  S
C1617      N1619   1.157       .  T
C1618      N1620   1.157       .  T
C1621      C1622   1.403   1_554  A
C1622      C1623   1.398       .  A
C1622      H1627   1.085       .  S
C1623      C1624   1.408   1_556  A
C1623      C1630   1.443       .  S
C1625      C1626   1.403       .  A
C1625      H1628   1.085       .  S
C1626      C1629   1.443       .  S
C1629      N1631   1.157       .  T
C1630      N1632   1.157       .  T
O1633      C1643   1.277       .  A
O1633     Cu1913   2.005       .  S
O1634      C1644   1.278       .  A
O1634     Cu1641   2.004       .  S
O1635      C1917   1.278       .  A
O1635     Cu1641   2.011       .  S
O1636      C1918   1.278       .  A
O1636     Cu1913   2.012   1_545  S
O1637      C1918   1.277       .  A
O1637     Cu1642   2.005   1_545  S
O1638      C1917   1.276       .  A
O1638     Cu1914   2.008       .  S
O1639      C1644   1.278   1_545  A
O1639     Cu1914   2.007   1_545  S
O1640      C1643   1.279       .  A
O1640     Cu1642   2.009       .  S
Cu1641     O1905   2.005   1_554  S
Cu1641     O1908   2.012   1_565  S
Cu1641    Cu1914   2.371       .  S
Cu1642     O1910   2.008       .  S
Cu1642     O1911   2.007   1_565  S
Cu1642    Cu1913   2.371       .  S
C1643      C1857   1.487       .  S
C1644      C1869   1.488       .  S
C1645      O1907   1.278       .  A
C1645      O1910   1.276       .  A
C1645      C1896   1.472       .  S
C1646      O1908   1.278       .  A
C1646      O1909   1.277       .  A
C1646      C1884   1.475       .  S
O1647      C1657   1.279   1_545  A
O1647     Cu1655   2.014       .  S
O1648      C1658   1.278       .  A
O1648     Cu1655   2.000       .  S
O1649      C1659   1.277       .  A
O1649     Cu1655   2.007   1_565  S
O1650      C1660   1.277       .  A
O1650     Cu1655   2.007       .  S
O1651      C1660   1.277       .  A
O1651     Cu1656   2.003       .  S
O1652      C1659   1.277       .  A
O1652     Cu1656   2.004   1_565  S
O1653      C1658   1.278       .  A
O1653     Cu1656   2.009       .  S
O1654      C1657   1.278   1_545  A
O1654     Cu1656   2.002       .  S
Cu1655    Cu1656   2.372       .  S
C1657      C1872   1.488       .  S
C1658      C1860   1.486       .  S
C1659      C1845   1.469       .  S
C1660      C1836   1.476       .  S
C1661      C1881   1.486       .  S
C1661      C1662   1.400   1_554  A
C1661      C1666   1.400   1_554  A
C1662      C1663   1.410       .  A
C1662      H1667   1.080   1_556  S
C1663      C1989   1.502       .  S
C1663      C1664   1.410       .  A
C1664      C1665   1.410       .  A
C1664      H1668   1.078       .  S
C1665      C1991   1.502       .  S
C1665      C1666   1.409       .  A
C1666      H1669   1.081   1_556  S
C1670      C1833   1.490       .  S
C1670      C1671   1.400       .  A
C1670      C1675   1.402       .  A
C1671      C1672   1.406       .  A
C1671      H1676   1.081       .  S
C1672      C1726   1.499       .  S
C1672      C1673   1.409       .  A
C1673      C1674   1.410       .  A
C1673      H1677   1.078       .  S
C1674      C1728   1.504       .  S
C1674      C1675   1.411       .  A
C1675      H1678   1.079       .  S
C1679      C1893   1.480       .  S
C1679      C1680   1.398       .  A
C1679      C1684   1.398       .  A
C1680      C1681   1.410       .  A
C1680      H1685   1.081       .  S
C1681      C1971   1.504       .  S
C1681      C1682   1.410       .  A
C1682      C1683   1.411       .  A
C1682      H1686   1.078       .  S
C1683      C1973   1.501       .  S
C1683      C1684   1.410       .  A
C1684      H1687   1.081       .  S
C1688      C1848   1.479       .  S
C1688      C1689   1.399       .  A
C1688      C1693   1.397       .  A
C1689      C1690   1.412       .  A
C1689      H1694   1.080       .  S
C1690      C1708   1.507       .  S
C1690      C1691   1.413       .  A
C1691      C1692   1.410       .  A
C1691      H1695   1.076       .  S
C1692      C1710   1.498       .  S
C1692      C1693   1.405       .  A
C1693      H1696   1.082       .  S
C1697      C1821   1.487   1_556  S
C1697      C1698   1.400       .  A
C1698      C1699   1.412       .  A
C1698      H1703   1.080   1_556  S
C1699      C1953   1.504       .  S
C1699      C1700   1.411       .  A
C1700      H1704   1.078       .  S
C1701      C1955   1.501       .  S
C1701      C1702   1.407       .  A
C1702      H1705   1.081   1_556  S
C1706      C1711   1.402       .  A
C1707      C1708   1.411       .  A
C1707      H1712   1.076       .  S
C1709      C1710   1.408       .  A
C1709      H1713   1.078       .  S
C1710      C1711   1.406       .  A
C1711      H1714   1.081       .  S
C1715      C1797   1.483       .  S
C1715      C1716   1.399   1_455  A
C1716      C1717   1.410       .  A
C1716      H1721   1.081       .  S
C1717      C1935   1.502       .  S
C1717      C1718   1.410   1_655  A
C1718      H1722   1.078       .  S
C1719      C1937   1.502       .  S
C1719      C1720   1.409       .  A
C1720      H1723   1.081       .  S
C1724      C1788   1.479       .  S
C1724      C1725   1.397       .  A
C1725      C1726   1.406       .  A
C1725      H1730   1.081       .  S
C1726      C1727   1.410       .  A
C1727      H1731   1.078       .  S
C1728      C1729   1.411       .  A
C1729      H1732   1.081       .  S
O1733     Cu2013   2.013       .  S
O1734     Cu1741   2.003       .  S
O1735     Cu1741   2.005       .  S
O1736     Cu2013   2.006       .  S
O1737      C2018   1.277       .  A
O1737     Cu1742   2.010       .  S
O1738      C1745   1.278       .  A
O1738     Cu2014   2.012       .  S
O1739      C1744   1.279       .  A
O1739     Cu2014   2.014       .  S
O1740      C1743   1.278   1_655  A
O1740     Cu1742   2.000       .  S
Cu1741     O2005   2.013       .  S
Cu1741     O2008   2.006       .  S
Cu1742     O2010   2.012       .  S
Cu1742     O2011   2.014   1_554  S
C1743      C1773   1.488       .  S
C1744      C1764   1.485       .  S
C1745      C2096   1.475       .  S
C1746      O2009   1.277       .  A
C1746      C1800   1.473   1_655  S
O1747     Cu1755   2.005       .  S
O1748     Cu1755   2.010       .  S
O1749     Cu1755   2.004       .  S
O1750     Cu1755   2.002       .  S
O1751      C1760   1.278       .  A
O1751     Cu1756   2.010       .  S
O1752      C1759   1.277       .  A
O1752     Cu1756   2.008       .  S
O1753      C1758   1.278       .  A
O1753     Cu1756   2.003       .  S
O1754      C1757   1.279       .  A
O1754     Cu1756   2.013       .  S
C1757      C1776   1.490       .  S
C1758      C1761   1.484       .  S
C1759      C1785   1.469       .  S
C1760      C1809   1.482       .  S
C1761      C1762   1.405       .  A
C1762      C1763   1.401       .  A
C1762      H1767   1.085       .  S
C1763      C1764   1.414       .  A
C1763      C1770   1.444       .  S
C1765      C1766   1.400       .  A
C1765      H1768   1.085       .  S
C1766      C1769   1.444       .  S
C1769      N1771   1.157       .  T
C1770      N1772   1.157       .  T
C1773      C1774   1.406   1_455  A
C1774      C1775   1.400       .  A
C1774      H1779   1.085       .  S
C1775      C1776   1.416       .  A
C1775      C1782   1.445       .  S
C1777      C1778   1.401       .  A
C1777      H1780   1.084       .  S
C1778      C1781   1.445       .  S
C1781      N1783   1.157       .  T
C1782      N1784   1.157       .  T
C1785      C1790   1.410       .  A
C1786      C1787   1.397       .  A
C1786      H1791   1.085       .  S
C1787      C1788   1.412       .  A
C1787      C1794   1.445       .  S
C1789      C1790   1.402       .  A
C1789      H1792   1.085       .  S
C1790      C1793   1.444       .  S
C1793      N1795   1.157       .  T
C1794      N1796   1.157       .  T
C1797      C2074   1.412   1_455  A
C1798      C1799   1.399       .  A
C1798      H1803   1.085       .  S
C1799      C1806   1.445       .  S
C1800      C2073   1.403   1_455  A
C1801      C2072   1.403   1_655  A
C1801      C1802   1.403       .  A
C1801      H1804   1.085       .  S
C1802      C2069   1.412   1_655  A
C1802      C1805   1.444       .  S
C1805      N1807   1.157       .  T
C1806      N1808   1.157       .  T
C1809      C1814   1.412       .  A
C1810      C1811   1.399       .  A
C1810      H1815   1.085       .  S
C1811      C1818   1.445       .  S
C1812      C1813   1.409   1_455  A
C1813      C1814   1.401       .  A
C1813      H1816   1.084       .  S
C1814      C1817   1.444       .  S
C1817      N1819   1.157       .  T
C1818      N1820   1.157       .  T
C1821      C1822   1.405       .  A
C1822      C1823   1.403       .  A
C1822      H1827   1.084       .  S
C1823      C1824   1.411       .  A
C1823      C1830   1.444       .  S
C1824      C2017   1.475       .  S
C1825      C1826   1.399       .  A
C1825      H1828   1.085       .  S
C1826      C1829   1.445       .  S
C1829      N1831   1.157       .  T
C1830      N1832   1.157       .  T
C1833      C1834   1.406       .  A
C1833      C1838   1.417       .  A
C1834      C1835   1.401       .  A
C1834      H1839   1.084       .  S
C1835      C1836   1.411       .  A
C1835      C1842   1.444       .  S
C1836      C1837   1.401       .  A
C1837      C1838   1.398       .  A
C1837      H1840   1.085       .  S
C1838      C1841   1.445       .  S
C1841      N1843   1.157       .  T
C1842      N1844   1.157       .  T
C1845      C1846   1.400       .  A
C1845      C1850   1.410       .  A
C1846      C1847   1.397       .  A
C1846      H1851   1.085       .  S
C1847      C1848   1.412       .  A
C1847      C1854   1.445       .  S
C1848      C1849   1.404       .  A
C1849      C1850   1.402       .  A
C1849      H1852   1.085       .  S
C1850      C1853   1.444       .  S
C1853      N1855   1.157       .  T
C1854      N1856   1.157       .  T
C1857      C1858   1.406   1_565  A
C1857      C1862   1.416       .  A
C1858      C1859   1.400       .  A
C1858      H1863   1.084       .  S
C1859      C1860   1.415       .  A
C1859      C1866   1.444       .  S
C1860      C1861   1.406   1_545  A
C1861      C1862   1.399       .  A
C1861      H1864   1.085       .  S
C1862      C1865   1.445       .  S
C1865      N1867   1.157       .  T
C1866      N1868   1.157       .  T
C1869      C1870   1.406       .  A
C1869      C1874   1.416   1_565  A
C1870      C1871   1.400       .  A
C1870      H1875   1.085       .  S
C1871      C1872   1.415       .  A
C1871      C1878   1.444       .  S
C1872      C1873   1.406   1_565  A
C1873      C1874   1.400       .  A
C1873      H1876   1.085       .  S
C1874      C1877   1.445       .  S
C1877      N1879   1.157       .  T
C1878      N1880   1.157       .  T
C1881      C2154   1.405   1_554  A
C1881      C1886   1.413       .  A
C1882      C2153   1.405       .  A
C1882      C1883   1.398       .  A
C1882      H1887   1.085       .  S
C1883      C2156   1.410       .  A
C1883      C1890   1.445       .  S
C1884      C2155   1.410   1_554  A
C1884      C1885   1.404       .  A
C1885      C1886   1.403       .  A
C1885      H1888   1.085       .  S
C1886      C1889   1.443       .  S
C1889      N1891   1.157       .  T
C1890      N1892   1.157       .  T
C1893      C1894   1.403       .  A
C1893      C2170   1.411       .  A
C1894      C1895   1.398       .  A
C1894      H1899   1.085       .  S
C1895      C1896   1.408       .  A
C1895      C1902   1.443       .  S
C1896      C2169   1.404       .  A
C1897      C2168   1.404       .  A
C1897      C1898   1.403       .  A
C1897      H1900   1.085       .  S
C1898      C2165   1.411       .  A
C1898      C1901   1.443       .  S
C1901      N1903   1.157       .  T
C1902      N1904   1.157       .  T
O1905      C1915   1.277       .  A
O1906      C1916   1.278       .  A
O1906     Cu1913   2.004       .  S
O1907     Cu1913   2.011       .  S
O1909     Cu1914   2.005   1_545  S
O1911      C1916   1.278   1_545  A
O1912      C1915   1.279       .  A
O1912     Cu1914   2.009   1_556  S
C1915      C2129   1.487       .  S
C1916      C2141   1.488       .  S
C1917      C2168   1.472       .  S
C1918      C2156   1.475       .  S
O1919      C1929   1.279   1_545  A
O1919     Cu1927   2.014       .  S
O1920      C1930   1.278       .  A
O1920     Cu1927   2.000       .  S
O1921      C1931   1.277       .  A
O1921     Cu1927   2.007   1_565  S
O1922      C1932   1.277       .  A
O1922     Cu1927   2.007       .  S
O1923      C1932   1.277       .  A
O1923     Cu1928   2.003       .  S
O1924      C1931   1.277       .  A
O1924     Cu1928   2.003   1_565  S
O1925      C1930   1.278       .  A
O1925     Cu1928   2.009       .  S
O1926      C1929   1.278   1_545  A
O1926     Cu1928   2.002       .  S
Cu1927    Cu1928   2.372       .  S
C1929      C2144   1.488       .  S
C1930      C2132   1.486       .  S
C1931      C2117   1.469       .  S
C1932      C2108   1.476       .  S
C1933      C2153   1.486       .  S
C1933      C1934   1.400       .  A
C1933      C1938   1.400       .  A
C1934      C1935   1.410       .  A
C1934      H1939   1.080       .  S
C1935      C1936   1.410       .  A
C1936      C1937   1.410       .  A
C1936      H1940   1.078       .  S
C1937      C1938   1.409       .  A
C1938      H1941   1.081       .  S
C1942      C2105   1.490       .  S
C1942      C1943   1.400       .  A
C1942      C1947   1.402       .  A
C1943      C1944   1.406       .  A
C1943      H1948   1.081       .  S
C1944      C1998   1.499       .  S
C1944      C1945   1.409       .  A
C1945      C1946   1.410       .  A
C1945      H1949   1.078       .  S
C1946      C2000   1.504       .  S
C1946      C1947   1.411       .  A
C1947      H1950   1.079       .  S
C1951      C2165   1.480       .  S
C1951      C1952   1.398   1_554  A
C1951      C1956   1.398   1_554  A
C1952      C1953   1.410       .  A
C1952      H1957   1.081   1_556  S
C1953      C1954   1.410       .  A
C1954      C1955   1.411       .  A
C1954      H1958   1.078       .  S
C1955      C1956   1.410       .  A
C1956      H1959   1.081   1_556  S
C1960      C2120   1.479       .  S
C1960      C1961   1.399       .  A
C1960      C1965   1.397       .  A
C1961      C1962   1.412       .  A
C1961      H1966   1.080       .  S
C1962      C1980   1.507       .  S
C1962      C1963   1.413       .  A
C1963      C1964   1.410       .  A
C1963      H1967   1.076       .  S
C1964      C1982   1.498       .  S
C1964      C1965   1.405       .  A
C1965      H1968   1.082       .  S
C1969      C2093   1.487       .  S
C1969      C1970   1.400       .  A
C1970      C1971   1.412       .  A
C1970      H1975   1.080       .  S
C1971      C1972   1.411       .  A
C1972      H1976   1.078       .  S
C1973      C1974   1.407       .  A
C1974      H1977   1.081       .  S
C1978      C1983   1.402       .  A
C1979      C1980   1.411       .  A
C1979      H1984   1.076       .  S
C1981      C1982   1.408       .  A
C1981      H1985   1.078       .  S
C1982      C1983   1.406       .  A
C1983      H1986   1.081       .  S
C1987      C2069   1.483   1_556  S
C1987      C1988   1.399   1_455  A
C1988      C1989   1.410       .  A
C1988      H1993   1.081   1_556  S
C1989      C1990   1.410   1_655  A
C1990      H1994   1.078       .  S
C1991      C1992   1.409       .  A
C1992      H1995   1.081   1_556  S
C1996      C2060   1.479       .  S
C1996      C1997   1.397       .  A
C1997      C1998   1.406       .  A
C1997      H2002   1.081       .  S
C1998      C1999   1.410       .  A
C1999      H2003   1.078       .  S
C2000      C2001   1.411       .  A
C2001      H2004   1.081       .  S
O2006     Cu2013   2.003   1_556  S
O2007     Cu2013   2.005       .  S
O2009     Cu2014   2.010       .  S
O2010      C2017   1.278       .  A
O2011      C2016   1.279       .  A
O2012      C2015   1.278   1_655  A
O2012     Cu2014   2.000       .  S
C2015      C2045   1.488       .  S
C2016      C2036   1.485       .  S
C2018      C2072   1.473   1_655  S
O2019     Cu2027   2.005       .  S
O2020     Cu2027   2.010       .  S
O2021     Cu2027   2.004       .  S
O2022     Cu2027   2.002       .  S
O2023      C2032   1.278       .  A
O2023     Cu2028   2.010       .  S
O2024      C2031   1.277       .  A
O2024     Cu2028   2.008       .  S
O2025      C2030   1.278       .  A
O2025     Cu2028   2.003       .  S
O2026      C2029   1.279       .  A
O2026     Cu2028   2.013       .  S
C2029      C2048   1.490       .  S
C2030      C2033   1.484       .  S
C2031      C2057   1.469       .  S
C2032      C2081   1.482       .  S
C2033      C2034   1.405       .  A
C2034      C2035   1.401       .  A
C2034      H2039   1.085       .  S
C2035      C2036   1.414       .  A
C2035      C2042   1.444       .  S
C2037      C2038   1.400       .  A
C2037      H2040   1.085       .  S
C2038      C2041   1.444       .  S
C2041      N2043   1.157       .  T
C2042      N2044   1.157       .  T
C2045      C2046   1.406   1_455  A
C2046      C2047   1.400       .  A
C2046      H2051   1.085       .  S
C2047      C2048   1.416       .  A
C2047      C2054   1.445       .  S
C2049      C2050   1.401       .  A
C2049      H2052   1.084       .  S
C2050      C2053   1.445       .  S
C2053      N2055   1.157       .  T
C2054      N2056   1.157       .  T
C2057      C2062   1.410       .  A
C2058      C2059   1.397       .  A
C2058      H2063   1.085       .  S
C2059      C2060   1.412       .  A
C2059      C2066   1.445       .  S
C2061      C2062   1.402       .  A
C2061      H2064   1.085       .  S
C2062      C2065   1.444       .  S
C2065      N2067   1.157       .  T
C2066      N2068   1.157       .  T
C2070      C2071   1.399       .  A
C2070      H2075   1.085       .  S
C2071      C2078   1.445       .  S
C2073      C2074   1.403       .  A
C2073      H2076   1.085       .  S
C2074      C2077   1.444       .  S
C2077      N2079   1.157       .  T
C2078      N2080   1.157       .  T
C2081      C2086   1.412       .  A
C2082      C2083   1.399       .  A
C2082      H2087   1.085       .  S
C2083      C2090   1.445       .  S
C2084      C2085   1.409   1_455  A
C2085      C2086   1.401       .  A
C2085      H2088   1.084       .  S
C2086      C2089   1.444       .  S
C2089      N2091   1.157       .  T
C2090      N2092   1.157       .  T
C2093      C2094   1.405       .  A
C2094      C2095   1.403       .  A
C2094      H2099   1.084       .  S
C2095      C2096   1.411       .  A
C2095      C2102   1.444       .  S
C2097      C2098   1.399       .  A
C2097      H2100   1.085       .  S
C2098      C2101   1.445       .  S
C2101      N2103   1.157       .  T
C2102      N2104   1.157       .  T
C2105      C2106   1.406       .  A
C2105      C2110   1.417       .  A
C2106      C2107   1.401       .  A
C2106      H2111   1.084       .  S
C2107      C2108   1.411       .  A
C2107      C2114   1.444       .  S
C2108      C2109   1.401       .  A
C2109      C2110   1.398       .  A
C2109      H2112   1.085       .  S
C2110      C2113   1.445       .  S
C2113      N2115   1.157       .  T
C2114      N2116   1.157       .  T
C2117      C2118   1.400       .  A
C2117      C2122   1.410       .  A
C2118      C2119   1.397       .  A
C2118      H2123   1.085       .  S
C2119      C2120   1.412       .  A
C2119      C2126   1.445       .  S
C2120      C2121   1.404       .  A
C2121      C2122   1.402       .  A
C2121      H2124   1.085       .  S
C2122      C2125   1.444       .  S
C2125      N2127   1.157       .  T
C2126      N2128   1.157       .  T
C2129      C2130   1.406   1_565  A
C2129      C2134   1.416       .  A
C2130      C2131   1.400       .  A
C2130      H2135   1.084       .  S
C2131      C2132   1.415       .  A
C2131      C2138   1.444       .  S
C2132      C2133   1.406   1_545  A
C2133      C2134   1.399       .  A
C2133      H2136   1.085       .  S
C2134      C2137   1.445       .  S
C2137      N2139   1.157       .  T
C2138      N2140   1.157       .  T
C2141      C2142   1.406       .  A
C2141      C2146   1.416   1_565  A
C2142      C2143   1.400       .  A
C2142      H2147   1.085       .  S
C2143      C2144   1.415       .  A
C2143      C2150   1.444       .  S
C2144      C2145   1.406   1_565  A
C2145      C2146   1.400       .  A
C2145      H2148   1.085       .  S
C2146      C2149   1.445       .  S
C2149      N2151   1.157       .  T
C2150      N2152   1.157       .  T
C2153      C2158   1.413       .  A
C2154      C2155   1.398       .  A
C2154      H2159   1.085       .  S
C2155      C2162   1.445       .  S
C2156      C2157   1.404       .  A
C2157      C2158   1.403       .  A
C2157      H2160   1.085       .  S
C2158      C2161   1.443       .  S
C2161      N2163   1.157       .  T
C2162      N2164   1.157       .  T
C2165      C2166   1.403   1_554  A
C2166      C2167   1.398       .  A
C2166      H2171   1.085       .  S
C2167      C2168   1.408   1_556  A
C2167      C2174   1.443       .  S
C2169      C2170   1.403       .  A
C2169      H2172   1.085       .  S
C2170      C2173   1.443       .  S
C2173      N2175   1.157       .  T
C2174      N2176   1.157       .  T
