geometry optimzed in LAMMPS
_audit_creation_date              2020-12-01 
_audit_creation_method            'lammps2cif' 
_symmetry_space_group_name_H-M    'P1' 
_symmetry_Int_Tables_number       1 
_symmetry_cell_setting            triclinic 
loop_ 
_symmetry_equiv_pos_as_xyz 
  x,y,z 
_cell_length_a                    35.35663335 
_cell_length_b                    33.435616524814414 
_cell_length_c                    29.510738734207624 
_cell_angle_alpha                 89.58137261599133 
_cell_angle_beta                  89.93989919157941 
_cell_angle_gamma                 124.57487785671607 
loop_ 
_atom_site_label 
_atom_site_type_symbol 
_atom_site_fract_x 
_atom_site_fract_y 
_atom_site_fract_z 
_atom_site_charge 
Zn1        Zn  0.16192545  0.34346248  0.46206883     1.49700
Zn2        Zn  0.14084280  0.37731230  0.36956875     1.49400
Zn3        Zn  0.23954585  0.39371020  0.38191553     1.49100
Zn4        Zn  0.14901373  0.28167641  0.37083309     1.49500
O5          O  0.17295745  0.34891202  0.39572246    -1.82200
O6          O  0.13448513  0.38266646  0.48241237    -0.72900
O7          O  0.18170648  0.43183453  0.32360898    -0.72700
O8          O  0.28059585  0.40547837  0.44067286    -0.72200
O9          O  0.12101478  0.40747876  0.41806391    -0.72900
O10         O  0.22465293  0.37117416  0.49254332    -0.72500
O11         O  0.25229737  0.45211259  0.33840652    -0.73100
O12         O  0.19670949  0.27868495  0.32887064    -0.72500
O13         O  0.08544078  0.32326839  0.33537515    -0.73200
O14         O  0.25353454  0.35503216  0.34112168    -0.72600
O15         O  0.09038181  0.25950228  0.33424096    -0.73100
O16         O  0.13170038  0.23377137  0.42538589    -0.73000
O17         O  0.12461172  0.27033777  0.48447698    -0.72800
C18         C  0.12162416  0.40691927  0.46139433     0.79000
C19         C  0.22488912  0.45852738  0.31556305     0.79500
C20         C  0.26668331  0.38992916  0.48143000     0.78500
C21         C  0.23843923  0.31432012  0.32220367     0.78800
C22         C  0.06935782  0.27945214  0.32399054     0.80000
C23         C  0.12183409  0.23350276  0.46728062     0.79000
N24         N  0.27361896  0.27783555  0.26963762    -0.01600
C25         C  0.27269513  0.31389013  0.29155255     0.01000
C26         C  0.31315070  0.35854495  0.28163714    -0.21900
C27         C  0.33837679  0.35075438  0.25314068    -0.22100
C28         C  0.31407396  0.30181858  0.24627830     0.00900
H29         H  0.32324418  0.39397403  0.29319632     0.14700
H30         H  0.37106116  0.37817386  0.23886667     0.14700
N31         N  0.24175683  0.49080399  0.27570575    -0.01600
C32         C  0.21192186  0.00319305  0.25764576     0.01000
C33         C  0.20216050  0.98365993  0.21454645    -0.21900
C34         C  0.22835544  0.96615028  0.20795564    -0.22100
C35         C  0.25244588  0.97516684  0.24751366     0.00900
H36         H  0.18686212  0.99179526  0.18739091     0.14700
H37         H  0.23718261  0.95942464  0.17505174     0.14700
N38         N  0.02425807  0.25081764  0.30307892    -0.01600
C39         C  0.49406399  0.26413224  0.31805627     0.01000
C40         C  0.46808451  0.23820046  0.35583651    -0.21900
C41         C  0.46926626  0.19810791  0.35679394    -0.22100
C42         C  0.49364452  0.20245011  0.31776592     0.00900
H43         H  0.44133436  0.23990348  0.37153237     0.14700
H44         H  0.44311572  0.16453919  0.37359215     0.14700
N45         N  0.32908204  0.40488605  0.54198440    -0.01600
C46         C  0.29213150  0.37683878  0.51305122     0.01000
C47         C  0.26687404  0.32903032  0.52671417    -0.21900
C48         C  0.28330807  0.32640903  0.56707633    -0.22100
C49         C  0.31810756  0.37328566  0.57774655     0.00900
H50         H  0.23471758  0.30110689  0.51252794     0.14700
H51         H  0.26553281  0.29553220  0.59008070     0.14700
N52         N  0.08372304  0.43352579  0.51723583    -0.01600
C53         C  0.11875796  0.44400503  0.48748106     0.01000
C54         C  0.16082199  0.47766071  0.50698802    -0.21900
C55         C  0.15279277  0.47855552  0.55191057    -0.22100
C56         C  0.10591705  0.44855621  0.55756951     0.00900
H57         H  0.19419989  0.48982633  0.49322211     0.14700
H58         H  0.17850750  0.49306563  0.57824957     0.14700
Zn59       Zn  0.45756558  0.11955150  0.18981381     1.49700
Zn60       Zn  0.38339104  0.00767041  0.19939640     1.49400
Zn61       Zn  0.47025242  0.07315956  0.26355500     1.49100
Zn62       Zn  0.38953450  0.06328169  0.27312903     1.49500
O63         O  0.42220516  0.06485487  0.22577932    -1.82200
O64         O  0.42722158  0.10339425  0.12666321    -0.72900
O65         O  0.41253945  0.47084444  0.19808902    -0.72700
O66         O  0.03480942  0.13882114  0.23872409    -0.72200
O67         O  0.38926792  0.02250708  0.13449356    -0.72900
O68         O  0.01373051  0.11938206  0.16786056    -0.72500
O69         O  0.47462011  0.51559661  0.24199081    -0.73100
O70         O  0.38348253  0.01715720  0.31843243    -0.72500
O71         O  0.31738132  0.97698422  0.22225706    -0.73200
O72         O  0.45727971  0.07137425  0.32937514    -0.72600
O73         O  0.32779040  0.04039878  0.25913000    -0.73100
O74         O  0.43011637  0.12677395  0.29704578    -0.73000
O75         O  0.47948321  0.17207277  0.24070151    -0.72800
C76         C  0.40511571  0.06030305  0.10995664     0.79000
C77         C  0.44768544  0.47819649  0.21858068     0.79500
C78         C  0.04248563  0.13105827  0.19892358     0.78500
C79         C  0.41852346  0.03548451  0.34308566     0.78800
C80         C  0.30158692  0.99795411  0.24327632     0.80000
C81         C  0.46675741  0.16537610  0.28279157     0.79000
Zn82       Zn  0.48211311  0.38015594  0.26019619     1.49700
Zn83       Zn  0.48545997  0.32766875  0.19385883     1.49400
Zn84       Zn  0.39934436  0.29191276  0.26617721     1.49100
Zn85       Zn  0.41522377  0.34501312  0.17124111     1.49500
O86         O  0.44019961  0.33159015  0.21943262    -1.82200
O87         O  0.04236229  0.39816414  0.25545877    -0.72900
O88         O  0.49686129  0.29744682  0.24654085    -0.72700
O89         O  0.39551653  0.33002896  0.31847859    -0.72200
O90         O  0.03500086  0.39629656  0.18259682    -0.72900
O91         O  0.46820450  0.35861845  0.32343920    -0.72500
O92         O  0.43328145  0.26619957  0.29039667    -0.73100
O93         O  0.34633061  0.30018704  0.17701339    -0.72500
O94         O  0.46965176  0.30148698  0.13184109    -0.73200
O95         O  0.34144773  0.25277579  0.23237739    -0.72600
O96         O  0.44150325  0.34404498  0.11161489    -0.73100
O97         O  0.43389946  0.41020330  0.18422571    -0.73000
O98         O  0.47608403  0.43491555  0.24794471    -0.72800
C99         C  0.05574310  0.41945087  0.21777287     0.79000
C100        C  0.47371440  0.27685517  0.28299645     0.79500
C101        C  0.43315704  0.35412510  0.33996203     0.78500
C102        C  0.33063641  0.28021566  0.21566236     0.78800
C103        C  0.46144909  0.32337199  0.10178440     0.80000
C104        C  0.45476657  0.44024164  0.21616746     0.79000
Zn105      Zn  0.21846839  0.13291909  0.20804485     1.49700
Zn106      Zn  0.14535547  0.14554777  0.25504088     1.53000
Zn107      Zn  0.11646773  0.06751451  0.17886430     1.49100
Zn108      Zn  0.15184016  0.06035733  0.27708123     1.49500
O109        O  0.15895470  0.10251138  0.22861563    -1.82200
O110        O  0.24940027  0.20097518  0.23985851    -0.72900
O111        O  0.11825846  0.16053259  0.20683680    -0.72700
O112        O  0.14327864  0.08581054  0.11692883    -0.72200
O113        O  0.19822635  0.20888656  0.27456548    -0.72900
O114        O  0.21593993  0.13866127  0.13704408    -0.72500
O115        O  0.07087914  0.08476632  0.18249139    -0.73100
O116        O  0.10702665  0.49172042  0.25420194    -0.72500
O117        O  0.10230117  0.11555272  0.30817680    -0.73200
O118        O  0.08980662  0.49550143  0.18234431    -0.72600
O119        O  0.12246411  0.06633854  0.32969344    -0.73100
O120        O  0.20627974  0.06224981  0.29625950    -0.73000
O121        O  0.23009147  0.07900342  0.22544691    -0.72800
C122        C  0.23904822  0.22668296  0.26238682     0.79000
C123        C  0.07960010  0.12623391  0.19271448     0.79500
C124        C  0.18470165  0.11737392  0.10643154     0.78500
C125        C  0.08710243  0.47159022  0.21731143     0.78800
C126        C  0.10134851  0.08621970  0.33652270     0.80000
C127        C  0.21977884  0.05225633  0.26126613     0.79000
Zn128      Zn  0.98427823  0.48702854  0.51973755     1.49700
Zn129      Zn  0.01279631  0.46676888  0.42425902     1.49400
Zn130      Zn  0.42165219  0.44042648  0.43319931     1.49100
Zn131      Zn  0.00058829  0.05831978  0.43623769     1.49500
O132        O  0.97573260  0.48247261  0.45433060    -1.82200
O133        O  0.02948777  0.45737243  0.53143833    -0.72900
O134        O  0.48311843  0.41902638  0.38496173    -0.72700
O135        O  0.37624203  0.42575373  0.47886907    -0.72200
O136        O  0.04531465  0.44697901  0.46143437    -0.72900
O137        O  0.41409778  0.45038592  0.54476029    -0.72500
O138        O  0.40961525  0.38011963  0.40308682    -0.73100
O139        O  0.43783660  0.03857775  0.41806427    -0.72500
O140        O  0.07925073  0.04674912  0.40578255    -0.73200
O141        O  0.40505068  0.96895100  0.38268160    -0.72600
O142        O  0.04062222  0.07627520  0.38081248    -0.73100
O143        O  0.03349900  0.11303213  0.47717271    -0.73000
O144        O  0.03539187  0.07902151  0.54156946    -0.72800
C145        C  0.05058601  0.44541376  0.50355562     0.79000
C146        C  0.44146399  0.38477882  0.37867712     0.79500
C147        C  0.37554050  0.42939800  0.52159190     0.78500
C148        C  0.41701640  0.01237556  0.38435871     0.78800
C149        C  0.07315396  0.07072776  0.37692273     0.80000
C150        C  0.04792737  0.11786968  0.51729289     0.79000
N151        N  0.08346729  0.16854107  0.53039487    -0.01600
C152        C  0.11763447  0.19507072  0.49852098     0.01000
C153        C  0.15904849  0.20812877  0.51662909    -0.21900
C154        C  0.15317737  0.20262011  0.56254321    -0.22100
C155        C  0.10707471  0.18105631  0.57024427     0.00900
H156        H  0.19137039  0.22641825  0.49875496     0.14700
H157        H  0.18004585  0.21624050  0.58758841     0.14700
Zn158      Zn  0.04246176  0.06352094  0.98295184     1.49700
Zn159      Zn  0.01319589  0.48479435  0.90977158     1.49400
Zn160      Zn  0.06268173  0.48187818  0.97482105     1.49100
Zn161      Zn  0.45519060  0.46329554  0.98818994     1.49500
O162        O  0.01938431  0.50046960  0.97106109    -1.82200
O163        O  0.04787748  0.09092765  0.91947825    -0.72900
O164        O  0.01054725  0.42484966  0.90015039    -0.72700
O165        O  0.11698745  0.02634851  0.00379246    -0.72200
O166        O  0.05812945  0.04126618  0.88276720    -0.72900
O167        O  0.11157554  0.09040204  0.00509228    -0.72500
O168        O  0.08340350  0.47711959  0.91070144    -0.73100
O169        O  0.44876032  0.39953524  0.01428016    -0.72500
O170        O  0.45959292  0.50081446  0.89390849    -0.73200
O171        O  0.51922505  0.41655474  0.00035843    -0.72600
O172        O  0.41561651  0.43276721  0.93143741    -0.73100
O173        O  0.43026198  0.00563069  0.01967449    -0.73000
O174        O  0.49066982  0.08220502  0.00604667    -0.72800
C175        C  0.05549527  0.07705972  0.88272399     0.79000
C176        C  0.05107297  0.44573531  0.88562104     0.79500
C177        C  0.13580159  0.07235873  0.00957333     0.78500
C178        C  0.47660997  0.38608439  0.01123060     0.78800
C179        C  0.42292139  0.45892807  0.89686005     0.80000
C180        C  0.44800232  0.05170828  0.01765772     0.79000
Zn181      Zn  0.09013470  0.39399935  0.69601530     1.49700
Zn182      Zn  0.01453756  0.40121712  0.75087321     1.49400
Zn183      Zn  0.10814517  0.48364344  0.74760541     1.49100
Zn184      Zn  0.03669238  0.42940040  0.66349473     1.49500
O185        O  0.06694346  0.42708533  0.71652059    -1.82200
O186        O  0.02854134  0.32431925  0.70080165    -0.72900
O187        O  0.02361570  0.40603126  0.81677006    -0.72700
O188        O  0.16984405  0.49936826  0.74042145    -0.72200
O189        O  0.97560253  0.33424192  0.72657281    -0.72900
O190        O  0.14307351  0.42104621  0.74363148    -0.72500
O191        O  0.09248218  0.47593666  0.81584108    -0.73100
O192        O  0.13302738  0.05458861  0.66806103    -0.72500
O193        O  0.47744465  0.39933156  0.70492055    -0.73200
O194        O  0.12769579  0.06247902  0.74208888    -0.72600
O195        O  0.51053383  0.47574078  0.68586490    -0.73100
O196        O  0.04368223  0.40404259  0.60770589    -0.73000
O197        O  0.11096445  0.42333625  0.63191592    -0.72800
C198        C  0.99836949  0.31581632  0.73095165     0.79000
C199        C  0.05727770  0.44168114  0.83735711     0.79500
C200        C  0.17065259  0.46515630  0.75748808     0.78500
C201        C  0.13168788  0.07721200  0.70140929     0.78800
C202        C  0.47568681  0.43561316  0.69935977     0.80000
C203        C  0.08575695  0.42329816  0.60071169     0.79000
Zn204      Zn  0.09933978  0.14686150  0.76449588     1.49700
Zn205      Zn  0.11165592  0.22254121  0.71638402     1.49400
Zn206      Zn  0.03910530  0.11669235  0.68284407     1.49100
Zn207      Zn  0.02395332  0.14238783  0.78053867     1.49500
O208        O  0.06300404  0.15858237  0.73210942    -1.82200
O209        O  0.13408756  0.20123243  0.80629055    -0.72900
O210        O  0.11585750  0.21344537  0.64537110    -0.72700
O211        O  0.07650477  0.08934167  0.68022341    -0.72200
O212        O  0.17339689  0.23811711  0.74560764    -0.72900
O213        O  0.13806555  0.14691549  0.71732006    -0.72500
O214        O  0.04827341  0.14809450  0.62473523    -0.73100
O215        O  0.44805033  0.08658806  0.74289163    -0.72500
O216        O  0.08491143  0.25645580  0.74973377    -0.73200
O217        O  0.45600029  0.05313606  0.68162433    -0.72600
O218        O  0.02627857  0.19772503  0.79274707    -0.73100
O219        O  0.04126323  0.12532940  0.83825467    -0.73000
O220        O  0.06771043  0.08812165  0.80355931    -0.72800
C221        C  0.17117655  0.22050781  0.78479793     0.79000
C222        C  0.08914443  0.18194643  0.61529187     0.79500
C223        C  0.11724834  0.10843477  0.69481049     0.78500
C224        C  0.43146396  0.05576210  0.71159884     0.78800
C225        C  0.05194090  0.24096804  0.77903628     0.80000
C226        C  0.05547896  0.09815978  0.83971108     0.79000
Zn227      Zn  0.31593306  0.43639569  0.70634569     1.49700
Zn228      Zn  0.38657974  0.46118956  0.76213757     1.49400
Zn229      Zn  0.30631897  0.38094031  0.80683246     1.49100
Zn230      Zn  0.34051407  0.36130052  0.72009254     1.49500
O231        O  0.33121426  0.40328548  0.74846562    -1.82200
O232        O  0.36355192  0.98864055  0.68396758    -0.72900
O233        O  0.41042982  0.46527778  0.82149458    -0.72700
O234        O  0.27360319  0.41175916  0.81469616    -0.72200
O235        O  0.36645755  0.00814517  0.75486757    -0.72900
O236        O  0.27738755  0.44897850  0.74869204    -0.72500
O237        O  0.35164942  0.40445133  0.85915131    -0.73100
O238        O  0.30287323  0.29497494  0.74928327    -0.72500
O239        O  0.43199682  0.46655881  0.71748663    -0.73200
O240        O  0.27028197  0.30873602  0.80650019    -0.72600
O241        O  0.40346461  0.38825815  0.72866790    -0.73100
O242        O  0.33465942  0.36490079  0.65270117    -0.73000
O243        O  0.30449704  0.40750932  0.64221716    -0.72800
C244        C  0.38366921  0.01850294  0.71551367     0.79000
C245        C  0.39291341  0.44143253  0.85771051     0.79500
C246        C  0.26685117  0.43924556  0.79113237     0.78500
C247        C  0.27564606  0.28023463  0.78322291     0.78800
C248        C  0.43493856  0.43041311  0.71477051     0.80000
C249        C  0.32096259  0.38461748  0.62646549     0.79000
N250        N  0.18532414  0.10510276  0.02061590    -0.01600
C251        C  0.21608912  0.13884287  0.98860606     0.01000
C252        C  0.23275467  0.18547681  0.00348283    -0.21900
C253        C  0.22288795  0.18203478  0.04824051    -0.22100
C254        C  0.19640070  0.13346237  0.05851107     0.00900
H255        H  0.25797940  0.21951654  0.98676092     0.14700
H256        H  0.23600904  0.21193177  0.07155468     0.14700
N257        N  0.46024943  0.33518001  0.01796195    -0.01600
C258        C  0.47027201  0.31409952  0.98445302     0.01000
C259        C  0.50466280  0.30874824  0.99882727    -0.21900
C260        C  0.50667439  0.31343849  0.04448471    -0.22100
C261        C  0.47682573  0.32587350  0.05525060     0.00900
H262        H  0.51837325  0.29163209  0.98051525     0.14700
H263        H  0.52416970  0.30386190  0.06758492     0.14700
N264        N  0.41722812  0.06792943  0.02446357    -0.01600
C265        C  0.38385269  0.05415384  0.99189230     0.01000
C266        C  0.34148045  0.01534222  0.00763730    -0.21900
C267        C  0.34516343  0.01521510  0.05314857    -0.22100
C268        C  0.39037690  0.05045144  0.06263408     0.00900
H269        H  0.30891908  0.99739578  0.99013970     0.14700
H270        H  0.31723597  0.99427801  0.07713990     0.14700
Zn271      Zn  0.35309356  0.15593765  0.82179503     1.49700
Zn272      Zn  0.30460099  0.09838511  0.91553656     1.49400
Zn273      Zn  0.41556496  0.18064824  0.90739391     1.49100
Zn274      Zn  0.34331846  0.21198063  0.90530253     1.49500
O275        O  0.35391857  0.16141901  0.88816016    -1.82200
O276        O  0.31773990  0.08276905  0.80224331    -0.72900
O277        O  0.33942711  0.07771616  0.95390814    -0.72700
O278        O  0.46103527  0.20523765  0.85443793    -0.72200
O279        O  0.27586415  0.04730783  0.86483603    -0.72900
O280        O  0.41998227  0.20143492  0.79545987    -0.72500
O281        O  0.41533840  0.12782292  0.94584316    -0.73100
O282        O  0.39820793  0.26981862  0.94189503    -0.72500
O283        O  0.25196693  0.09960609  0.95316325    -0.73200
O284        O  0.44148245  0.24112181  0.94424287    -0.72600
O285        O  0.28476625  0.17837233  0.94364917    -0.73100
O286        O  0.32435586  0.23453996  0.85018526    -0.73000
O287        O  0.31219494  0.17740718  0.80199086    -0.72800
C288        C  0.28554496  0.04471478  0.82346159     0.79000
C289        C  0.38007170  0.08881877  0.96222045     0.79500
C290        C  0.45887225  0.21632685  0.81343366     0.78500
C291        C  0.43461173  0.27353006  0.95491273     0.78800
C292        C  0.25172094  0.13743644  0.95991362     0.80000
C293        C  0.30349321  0.20742712  0.81618023     0.79000
N294        N  0.25802461  0.99802832  0.80062489    -0.01600
C295        C  0.24510945  0.45928804  0.81475850     0.01000
C296        C  0.20742938  0.42872764  0.84201116    -0.21900
C297        C  0.17698729  0.44004091  0.83239031    -0.22100
C298        C  0.19775154  0.47546304  0.79892960     0.00900
H299        H  0.19849036  0.39499199  0.85764541     0.14700
H300        H  0.14053804  0.41653840  0.83953531     0.14700
N301        N  0.50146579  0.25156780  0.78978453    -0.01600
C302        C  0.03930228  0.27189618  0.79616334     0.01000
C303        C  0.07157644  0.32021664  0.80250970    -0.21900
C304        C  0.04993761  0.34206614  0.79245263    -0.22100
C305        C  0.00634732  0.30626192  0.77706432     0.00900
H306        H  0.10828810  0.33791670  0.80518086     0.14700
H307        H  0.06872448  0.38014220  0.78425024     0.14700
N308        N  0.24727403  0.22974418  0.79353419    -0.01600
C309        C  0.25896386  0.19801022  0.80244709     0.01000
C310        C  0.21975359  0.15255695  0.81145981    -0.21900
C311        C  0.18353113  0.15668964  0.80892094    -0.22100
C312        C  0.20110143  0.20422335  0.79703039     0.00900
H313        H  0.21792804  0.12044530  0.82217603     0.14700
H314        H  0.14823857  0.12766437  0.81487084     0.14700
Zn315      Zn  0.15314240  0.83379437  0.46074738     1.49700
Zn316      Zn  0.13116975  0.87155230  0.37179964     1.49400
Zn317      Zn  0.23128866  0.88704393  0.38289085     1.49100
Zn318      Zn  0.14241229  0.77647378  0.36638025     1.49500
O319        O  0.16436212  0.84232957  0.39490321    -1.82200
O320        O  0.11490046  0.86033230  0.48401524    -0.72900
O321        O  0.17462055  0.93144222  0.32922161    -0.72700
O322        O  0.27191328  0.89744179  0.44144051    -0.72200
O323        O  0.09790836  0.88688845  0.42345751    -0.72900
O324        O  0.21548037  0.86295837  0.49273442    -0.72500
O325        O  0.24379395  0.94579990  0.34082071    -0.73100
O326        O  0.19108175  0.77456234  0.32591244    -0.72500
O327        O  0.07862758  0.81769993  0.33296729    -0.73200
O328        O  0.24715990  0.84989077  0.34224480    -0.72600
O329        O  0.08523342  0.75511769  0.32914435    -0.73100
O330        O  0.12285009  0.72472710  0.41648096    -0.73000
O331        O  0.11854551  0.76012528  0.47806800    -0.72800
C332        C  0.09396227  0.87800170  0.46630361     0.79000
C333        C  0.21781313  0.95578530  0.32009641     0.79500
C334        C  0.25752977  0.88117234  0.48186507     0.78500
C335        C  0.23311970  0.81011732  0.32202172     0.78800
C336        C  0.06348977  0.77444270  0.32008362     0.80000
C337        C  0.11368437  0.72327536  0.45857481     0.79000
N338        N  0.27025268  0.77578729  0.26971566    -0.01600
C339        C  0.26865758  0.81089867  0.29266019     0.01000
C340        C  0.30876095  0.85609749  0.28371627    -0.21900
C341        C  0.33414826  0.84982887  0.25402813    -0.22100
C342        C  0.31046798  0.80114865  0.24574335     0.00900
H343        H  0.31808270  0.89102072  0.29599828     0.14700
H344        H  0.36619695  0.87817847  0.23932214     0.14700
N345        N  0.23639148  0.98952577  0.28109136    -0.01600
C346        C  0.21576839  0.50330837  0.25353866     0.01000
C347        C  0.20473584  0.48351879  0.21061237    -0.21900
C348        C  0.23043781  0.46560786  0.20290649    -0.22100
C349        C  0.25605767  0.47526726  0.24148055     0.00900
H350        H  0.18793852  0.49080677  0.18439467     0.14700
H351        H  0.23766734  0.45780597  0.16970496     0.14700
N352        N  0.01806277  0.74488592  0.29991595    -0.01600
C353        C  0.49033628  0.76117144  0.30840246     0.01000
C354        C  0.46432594  0.73401725  0.34572302    -0.21900
C355        C  0.46801020  0.69556753  0.34671055    -0.22100
C356        C  0.49392104  0.70203096  0.30823525     0.00900
H357        H  0.43614830  0.73351119  0.36087670     0.14700
H358        H  0.44271224  0.66129375  0.36304223     0.14700
N359        N  0.32157968  0.89538800  0.54026363    -0.01600
C360        C  0.28246810  0.86744672  0.51368947     0.01000
C361        C  0.25509530  0.82078620  0.53082554    -0.21900
C362        C  0.27351779  0.81923729  0.57018105    -0.22100
C363        C  0.31167706  0.86538951  0.57697733     0.00900
H364        H  0.22091693  0.79326234  0.51982233     0.14700
H365        H  0.25594314  0.79030995  0.59524344     0.14700
N366        N  0.06178421  0.91227508  0.52324618    -0.01600
C367        C  0.05658815  0.87608561  0.49506376     0.01000
C368        C  0.03120697  0.83207789  0.51848404    -0.21900
C369        C  0.03056731  0.84216262  0.56300340    -0.22100
C370        C  0.05128996  0.89135349  0.56521007     0.00900
H371        H  0.02403174  0.79774091  0.50689299     0.14700
H372        H  0.02051825  0.81710689  0.59120712     0.14700
Zn373      Zn  0.46310030  0.61860195  0.18036274     1.49700
Zn374      Zn  0.38541706  0.50711636  0.18727563     1.49400
Zn375      Zn  0.47203624  0.57143045  0.25453895     1.49100
Zn376      Zn  0.39330476  0.56033779  0.26523251     1.49500
O377        O  0.42462852  0.56346033  0.21572005    -1.82200
O378        O  0.43440180  0.60549687  0.11601721    -0.72900
O379        O  0.41051971  0.97217386  0.21096649    -0.72700
O380        O  0.02977883  0.62548842  0.23580405    -0.72200
O381        O  0.39075765  0.52420739  0.12202854    -0.72900
O382        O  0.01300992  0.61554862  0.16335986    -0.72500
O383        O  0.47441300  0.01783860  0.25196792    -0.73100
O384        O  0.38767107  0.51394010  0.31149313    -0.72500
O385        O  0.31966874  0.47666588  0.21193193    -0.73200
O386        O  0.46092192  0.56987697  0.32089514    -0.72600
O387        O  0.33187908  0.53868397  0.25285885    -0.73100
O388        O  0.43416872  0.62467418  0.28729403    -0.73000
O389        O  0.48317944  0.67143844  0.23116163    -0.72800
C390        C  0.40915495  0.56300375  0.09824986     0.79000
C391        C  0.44658644  0.97998585  0.22956584     0.79500
C392        C  0.04015783  0.62377773  0.19517934     0.78500
C393        C  0.42300204  0.53399004  0.33592507     0.78800
C394        C  0.30489297  0.49717431  0.23556469     0.80000
C395        C  0.46968077  0.66439797  0.27307383     0.79000
Zn396      Zn  0.48012652  0.87839642  0.25906157     1.49700
Zn397      Zn  0.47960054  0.82567181  0.18572246     1.49400
Zn398      Zn  0.39563793  0.78990784  0.25985825     1.49100
Zn399      Zn  0.41458021  0.85191245  0.17178685     1.49500
O400        O  0.43818759  0.83322909  0.21621389    -1.82200
O401        O  0.05457609  0.90080647  0.25533101    -0.72900
O402        O  0.49075166  0.79224583  0.23593338    -0.72700
O403        O  0.39147886  0.82595251  0.31336549    -0.72200
O404        O  0.04630581  0.89782739  0.18216818    -0.72900
O405        O  0.46343875  0.85204509  0.32102430    -0.72500
O406        O  0.42876492  0.76246153  0.28175858    -0.73100
O407        O  0.34500275  0.80640203  0.17571174    -0.72500
O408        O  0.45373980  0.79977531  0.12444681    -0.73200
O409        O  0.33780629  0.75321718  0.22567600    -0.72600
O410        O  0.44037060  0.85626721  0.11065822    -0.73100
O411        O  0.43298407  0.91472462  0.19087288    -0.73000
O412        O  0.47641451  0.93571420  0.25329584    -0.72800
C413        C  0.06616548  0.92186103  0.21742569     0.79000
C414        C  0.46875818  0.77244639  0.27311952     0.79500
C415        C  0.42839008  0.84885238  0.33604417     0.78500
C416        C  0.32726425  0.78196498  0.21222081     0.78800
C417        C  0.44419512  0.82285563  0.09719996     0.80000
C418        C  0.45416949  0.94265281  0.22397420     0.79000
Zn419      Zn  0.21898757  0.63253868  0.20838015     1.49700
Zn420      Zn  0.14275429  0.64192571  0.25227401     1.53000
Zn421      Zn  0.11898241  0.56642625  0.17516025     1.49100
Zn422      Zn  0.15052282  0.55807956  0.27554779     1.49500
O423        O  0.15883948  0.60060551  0.22674895    -1.82200
O424        O  0.24830159  0.69943991  0.24112983    -0.72900
O425        O  0.11713009  0.65726198  0.20231750    -0.72700
O426        O  0.14820748  0.58732987  0.11374218    -0.72200
O427        O  0.19513494  0.70555119  0.27399691    -0.72900
O428        O  0.21885516  0.64196854  0.13803623    -0.72500
O429        O  0.07217615  0.58169073  0.17717642    -0.73100
O430        O  0.11287388  0.99461197  0.25401005    -0.72500
O431        O  0.09493204  0.60654146  0.30157920    -0.73200
O432        O  0.08941240  0.99685002  0.18465143    -0.72600
O433        O  0.12271595  0.56596388  0.32848131    -0.73100
O434        O  0.20363245  0.55665879  0.29378894    -0.73000
O435        O  0.23156360  0.57909123  0.22447202    -0.72800
C436        C  0.23653618  0.72433882  0.26276505     0.79000
C437        C  0.07904007  0.62216885  0.18779838     0.79500
C438        C  0.18953513  0.62161717  0.10569341     0.78500
C439        C  0.09201773  0.97399633  0.21768156     0.78800
C440        C  0.09507823  0.57857140  0.33090382     0.80000
C441        C  0.22044660  0.55048850  0.25899369     0.79000
Zn442      Zn  0.98947424  0.99664496  0.52630225     1.49700
Zn443      Zn  0.02807287  0.98662856  0.43235323     1.49400
Zn444      Zn  0.41448969  0.93459703  0.43077107     1.49100
Zn445      Zn  0.98934003  0.54324600  0.42743239     1.49500
O446        O  0.98638538  0.99743743  0.46147953    -1.82200
O447        O  0.02345987  0.95469514  0.53566026    -0.72900
O448        O  0.47749265  0.91316675  0.38197680    -0.72700
O449        O  0.36785022  0.91650025  0.47639756    -0.72200
O450        O  0.05310320  0.95722645  0.46836918    -0.72900
O451        O  0.40674812  0.94225416  0.54174021    -0.72500
O452        O  0.40343684  0.87659884  0.39629753    -0.73100
O453        O  0.44335905  0.54281690  0.41145600    -0.72500
O454        O  0.05949488  0.52173441  0.38824362    -0.73200
O455        O  0.41204184  0.47100194  0.38091667    -0.72600
O456        O  0.03135985  0.56506122  0.37312178    -0.73100
O457        O  0.02173184  0.59895171  0.46641616    -0.73000
O458        O  0.02651293  0.56828038  0.53152260    -0.72800
C459        C  0.04626666  0.94356775  0.50926985     0.79000
C460        C  0.43590859  0.87995379  0.37409206     0.79500
C461        C  0.36772217  0.92034962  0.51908205     0.78500
C462        C  0.42297475  0.51406883  0.37906758     0.78800
C463        C  0.06064595  0.55515962  0.36644842     0.80000
C464        C  0.03723478  0.60555700  0.50606136     0.79000
N465        N  0.07192215  0.65643898  0.51772547    -0.01600
C466        C  0.10773954  0.68306431  0.48767445     0.01000
C467        C  0.14832348  0.69817405  0.50940003    -0.21900
C468        C  0.13923807  0.69381143  0.55481621    -0.22100
C469        C  0.09245273  0.67040199  0.55867380     0.00900
H470        H  0.18219788  0.71939128  0.49426519     0.14700
H471        H  0.16422264  0.70896355  0.58184036     0.14700
Zn472      Zn  0.04806836  0.56927889  0.97424614     1.49700
Zn473      Zn  0.00419712  0.98952493  0.91603309     1.49400
Zn474      Zn  0.05077670  0.96926265  0.97827506     1.49100
Zn475      Zn  0.44752494  0.96215221  0.98833723     1.49500
O476        O  0.01304948  0.99417488  0.97865346    -1.82200
O477        O  0.05350912  0.59100467  0.90896162    -0.72900
O478        O  0.99122318  0.92880684  0.89128529    -0.72700
O479        O  0.12450153  0.53665492  0.00410606    -0.72200
O480        O  0.06330690  0.53914172  0.87428206    -0.72900
O481        O  0.11777394  0.59945004  0.99893468    -0.72500
O482        O  0.06300216  0.96410115  0.91123593    -0.73100
O483        O  0.43641001  0.89587321  0.00931048    -0.72500
O484        O  0.44858192  0.93703284  0.88598951    -0.73200
O485        O  0.50239062  0.90360706  0.99200534    -0.72600
O486        O  0.40476761  0.94214407  0.93472432    -0.73100
O487        O  0.43456885  0.51038422  0.00736865    -0.73000
O488        O  0.49711664  0.58762339  0.00259442    -0.72800
C489        C  0.06065934  0.57521223  0.87309665     0.79000
C490        C  0.03222008  0.94546792  0.88065878     0.79500
C491        C  0.14238383  0.58241325  0.00711941     0.78500
C492        C  0.45971021  0.87718354  0.00479101     0.78800
C493        C  0.41051898  0.93008613  0.89608478     0.80000
C494        C  0.45301948  0.55695391  0.00770719     0.79000
Zn495      Zn  0.10512560  0.92021161  0.70490000     1.49700
Zn496      Zn  0.02340650  0.91583909  0.74084482     1.49400
Zn497      Zn  0.12062543  0.00379376  0.76356488     1.49100
Zn498      Zn  0.07800666  0.98937815  0.67120388     1.49500
O499        O  0.08507371  0.95721304  0.72066023    -1.82200
O500        O  0.06910871  0.86369415  0.74705619    -0.72900
O501        O  0.01506453  0.93648694  0.80190632    -0.72700
O502        O  0.18022739  0.01653020  0.77031314    -0.72200
O503        O  0.00073170  0.85031213  0.75669540    -0.72900
O504        O  0.17011297  0.95386521  0.73140818    -0.72500
O505        O  0.08822694  0.97784340  0.82306885    -0.73100
O506        O  0.06331624  0.49690332  0.65283230    -0.72500
O507        O  0.52149004  0.98074264  0.75701514    -0.73200
O508        O  0.10195614  0.53078196  0.71744971    -0.72600
O509        O  0.50763130  0.96757984  0.68279160    -0.73100
O510        O  0.06608639  0.95301260  0.61510859    -0.73000
O511        O  0.08539021  0.90278540  0.63776996    -0.72800
C512        C  0.02966499  0.84124129  0.76610396     0.79000
C513        C  0.04560334  0.95262895  0.83275055     0.79500
C514        C  0.19029406  0.98674346  0.76197650     0.78500
C515        C  0.08359129  0.53141227  0.68067348     0.78800
C516        C  0.49628985  0.97110272  0.72281244     0.80000
C517        C  0.06917021  0.91761758  0.60802309     0.79000
Zn518      Zn  0.09592475  0.63165544  0.74303413     1.49700
Zn519      Zn  0.09664144  0.70789523  0.69818045     1.49400
Zn520      Zn  0.01793481  0.60121347  0.67323519     1.49100
Zn521      Zn  0.01834236  0.63030948  0.77081922     1.49500
O522        O  0.05477806  0.64464369  0.72025198    -1.82200
O523        O  0.15348662  0.68858032  0.76583074    -0.72900
O524        O  0.09138455  0.70293422  0.62919142    -0.72700
O525        O  0.03579118  0.55618157  0.67214440    -0.72200
O526        O  0.16276611  0.72476812  0.70108336    -0.72900
O527        O  0.10920336  0.61033417  0.68860652    -0.72500
O528        O  0.03441982  0.62688874  0.61242120    -0.73100
O529        O  0.45914545  0.59212597  0.75720011    -0.72500
O530        O  0.07899722  0.74497943  0.74006926    -0.73200
O531        O  0.46444861  0.57030227  0.68738527    -0.72600
O532        O  0.02003790  0.68544650  0.78214066    -0.73100
O533        O  0.04226864  0.61866232  0.82675767    -0.73000
O534        O  0.07322772  0.58452355  0.79403257    -0.72800
C535        C  0.17832362  0.71130121  0.73191476     0.79000
C536        C  0.07024668  0.66733500  0.60156337     0.79500
C537        C  0.07691713  0.56867315  0.67622328     0.78500
C538        C  0.44109570  0.56673883  0.72187900     0.78800
C539        C  0.04723591  0.72922773  0.77069150     0.80000
C540        C  0.05979665  0.59459120  0.82933594     0.79000
Zn541      Zn  0.31059740  0.92583049  0.70471502     1.49700
Zn542      Zn  0.37948686  0.96095027  0.77443930     1.49400
Zn543      Zn  0.30575255  0.86928554  0.79714168     1.49100
Zn544      Zn  0.35528440  0.87119896  0.71341705     1.49500
O545        O  0.33555369  0.90226947  0.74464935    -1.82200
O546        O  0.37323218  0.50106000  0.69044196    -0.72900
O547        O  0.38260465  0.95717335  0.84150583    -0.72700
O548        O  0.27944206  0.90626370  0.81465970    -0.72200
O549        O  0.37543136  0.51265807  0.76242632    -0.72900
O550        O  0.27575874  0.93999291  0.74955512    -0.72500
O551        O  0.35199296  0.87862849  0.84352832    -0.73100
O552        O  0.31957965  0.80274609  0.73767092    -0.72500
O553        O  0.43965652  0.97916602  0.75129599    -0.73200
O554        O  0.26640405  0.79942497  0.78214653    -0.72600
O555        O  0.42075850  0.90939070  0.71951391    -0.73100
O556        O  0.34569672  0.87340358  0.64698138    -0.73000
O557        O  0.29442074  0.89215315  0.64374893    -0.72800
C558        C  0.39311940  0.52797083  0.72404006     0.79000
C559        C  0.37899439  0.92071413  0.85971444     0.79500
C560        C  0.27195825  0.93440516  0.79296433     0.78500
C561        C  0.28170765  0.77875316  0.75996297     0.78800
C562        C  0.44982553  0.95302862  0.73113655     0.80000
C563        C  0.31935536  0.88039326  0.62443110     0.79000
N564        N  0.19136086  0.61558472  0.01884662    -0.01600
C565        C  0.22375956  0.64914198  0.98795036     0.01000
C566        C  0.24833424  0.69496459  0.00714417    -0.21900
C567        C  0.23744599  0.68945881  0.05186144    -0.22100
C568        C  0.20393360  0.64106297  0.05875263     0.00900
H569        H  0.27691430  0.72822320  0.99208202     0.14700
H570        H  0.25411315  0.71747844  0.07728737     0.14700
N571        N  0.43611172  0.82462378  0.01199263    -0.01600
C572        C  0.40096828  0.79026960  0.98503403     0.01000
C573        C  0.36778775  0.75101670  0.01086174    -0.21900
C574        C  0.38391536  0.75761127  0.05342556    -0.22100
C575        C  0.42505867  0.80218457  0.05353056     0.00900
H576        H  0.33877851  0.71676235  0.99843182     0.14700
H577        H  0.36679382  0.73292097  0.08186063     0.14700
N578        N  0.42254587  0.57422623  0.01256926    -0.01600
C579        C  0.38990025  0.56204013  0.97900400     0.01000
C580        C  0.34780848  0.52164308  0.99352002    -0.21900
C581        C  0.35028801  0.52030319  0.03924279    -0.22100
C582        C  0.39498309  0.55585985  0.05029084     0.00900
H583        H  0.31560341  0.50321441  0.97534634     0.14700
H584        H  0.32189195  0.49771608  0.06232037     0.14700
Zn585      Zn  0.35085010  0.65182873  0.80890687     1.49700
Zn586      Zn  0.30246796  0.60173173  0.90698708     1.49400
Zn587      Zn  0.41076973  0.69150065  0.90029980     1.49100
Zn588      Zn  0.32941067  0.70753094  0.88082892     1.49500
O589        O  0.34807372  0.66226633  0.87444225    -1.82200
O590        O  0.31056749  0.57683314  0.79517219    -0.72900
O591        O  0.34193150  0.58300392  0.94221387    -0.72700
O592        O  0.45836536  0.72815257  0.84927206    -0.72200
O593        O  0.26649647  0.54943578  0.85767879    -0.72900
O594        O  0.41933981  0.70023674  0.78468399    -0.72500
O595        O  0.41703725  0.63941027  0.93716193    -0.73100
O596        O  0.38186867  0.77141296  0.90829358    -0.72500
O597        O  0.25584219  0.60775880  0.95034485    -0.73200
O598        O  0.41931834  0.74423122  0.94287656    -0.72600
O599        O  0.27566065  0.67991451  0.92550407    -0.73100
O600        O  0.30637770  0.71825684  0.82188105    -0.73000
O601        O  0.31517112  0.67252454  0.77492590    -0.72800
C602        C  0.27473449  0.54286218  0.81689946     0.79000
C603        C  0.38358068  0.59733423  0.95136220     0.79500
C604        C  0.45697549  0.72974600  0.80590865     0.78500
C605        C  0.40587706  0.77272894  0.94124425     0.78800
C606        C  0.25081139  0.64301241  0.95147965     0.80000
C607        C  0.30025732  0.69849791  0.78338876     0.79000
N608        N  0.24351111  0.49536821  0.79631686    -0.01600
C609        C  0.25644391  0.95961548  0.81924301     0.01000
C610        C  0.21563048  0.92827472  0.84215398    -0.21900
C611        C  0.18695727  0.94004946  0.82711519    -0.22100
C612        C  0.21286187  0.97951839  0.79885591     0.00900
H613        H  0.20398680  0.89306071  0.85636025     0.14700
H614        H  0.15006680  0.91744571  0.82954823     0.14700
N615        N  0.49738652  0.76955889  0.78183522    -0.01600
C616        C  0.04056104  0.76114539  0.79579204     0.01000
C617        C  0.07352961  0.79766560  0.82271915    -0.21900
C618        C  0.05737286  0.82538086  0.83113332    -0.22100
C619        C  0.01983058  0.80755346  0.80284729     0.00900
H620        H  0.10696887  0.80577137  0.83120390     0.14700
H621        H  0.07753483  0.86144950  0.84513929     0.14700
N622        N  0.25329673  0.72762602  0.75419992    -0.01600
C623        C  0.27130692  0.70137299  0.74921493     0.01000
C624        C  0.24937919  0.66827896  0.71473142    -0.21900
C625        C  0.21623612  0.67402004  0.69863582    -0.22100
C626        C  0.21883672  0.71011448  0.72410977     0.00900
H627        H  0.25425450  0.64036749  0.70488270     0.14700
H628        H  0.19076005  0.65133624  0.67367054     0.14700
Zn629      Zn  0.65517940  0.33310811  0.45892779     1.49700
Zn630      Zn  0.63953879  0.37460773  0.36954474     1.49400
Zn631      Zn  0.73605938  0.38688916  0.37934856     1.49100
Zn632      Zn  0.64558721  0.27625796  0.36638116     1.49500
O633        O  0.66944420  0.34281031  0.39306838    -1.82200
O634        O  0.62844329  0.37215980  0.48282626    -0.72900
O635        O  0.67994785  0.42868281  0.32215618    -0.72700
O636        O  0.77561796  0.39959437  0.43917964    -0.72200
O637        O  0.62178291  0.40535737  0.42055880    -0.72900
O638        O  0.71741871  0.35926757  0.48848453    -0.72500
O639        O  0.74941632  0.44486208  0.33466084    -0.73100
O640        O  0.69316420  0.27269863  0.32474254    -0.72500
O641        O  0.58325893  0.32095281  0.33702994    -0.73200
O642        O  0.75102021  0.34775357  0.33986955    -0.72600
O643        O  0.58778962  0.25697752  0.33092575    -0.73100
O644        O  0.62630201  0.22555550  0.41856085    -0.73000
O645        O  0.61702226  0.25888729  0.47883286    -0.72800
C646        C  0.61944710  0.40066579  0.46381060     0.79000
C647        C  0.72287295  0.45324957  0.31275056     0.79500
C648        C  0.76021297  0.38104066  0.47888319     0.78500
C649        C  0.73559438  0.30732070  0.32015870     0.78800
C650        C  0.56670087  0.27749251  0.32396750     0.80000
C651        C  0.61490351  0.22298002  0.46025522     0.79000
N652        N  0.77073294  0.27008921  0.26837896    -0.01600
C653        C  0.77014486  0.30632783  0.29041270     0.01000
C654        C  0.81076901  0.35077822  0.28054860    -0.21900
C655        C  0.83562981  0.34281387  0.25162593    -0.22100
C656        C  0.81104341  0.29386094  0.24466378     0.00900
H657        H  0.82108241  0.38629146  0.29205943     0.14700
H658        H  0.86806276  0.36997467  0.23715586     0.14700
N659        N  0.74033644  0.48554817  0.27277777    -0.01600
C660        C  0.71649743  0.99868866  0.24430316     0.01000
C661        C  0.71082284  0.98223865  0.20029336    -0.21900
C662        C  0.73691740  0.96430954  0.19560810    -0.22100
C663        C  0.75808327  0.97112407  0.23676331     0.00900
H664        H  0.69683473  0.99105804  0.17237381     0.14700
H665        H  0.74774307  0.95856697  0.16337613     0.14700
N666        N  0.52083326  0.24947325  0.30526088    -0.01600
C667        C  0.99546585  0.26260111  0.31680596     0.01000
C668        C  0.96958896  0.23407086  0.35358680    -0.21900
C669        C  0.97325247  0.19554372  0.35238151    -0.22100
C670        C  0.99761152  0.20282688  0.31240326     0.00900
H671        H  0.94149529  0.23303888  0.36966324     0.14700
H672        H  0.94793491  0.16075330  0.36790507     0.14700
N673        N  0.82254961  0.39842088  0.53990710    -0.01600
C674        C  0.78612910  0.36926530  0.51086394     0.01000
C675        C  0.76300369  0.32126511  0.52350384    -0.21900
C676        C  0.77970622  0.31932000  0.56383681    -0.22100
C677        C  0.81216010  0.36675067  0.57551801     0.00900
H678        H  0.73192076  0.29193703  0.50848494     0.14700
H679        H  0.76299875  0.28790293  0.58623892     0.14700
N680        N  0.58636965  0.43203784  0.52257651    -0.01600
C681        C  0.62033365  0.43866523  0.49281842     0.01000
C682        C  0.66303399  0.46769181  0.51289743    -0.21900
C683        C  0.65570800  0.47081072  0.55738891    -0.22100
C684        C  0.60905481  0.44692148  0.56278141     0.00900
H685        H  0.69533719  0.47613159  0.49935316     0.14700
H686        H  0.68129286  0.48486004  0.58385098     0.14700
Zn687      Zn  0.96073822  0.12041985  0.18384817     1.49700
Zn688      Zn  0.89240429  0.00787149  0.19528203     1.49400
Zn689      Zn  0.97634122  0.08061300  0.26070900     1.49100
Zn690      Zn  0.89346108  0.06582274  0.26674784     1.49500
O691        O  0.92735412  0.06654342  0.22118565    -1.82200
O692        O  0.92863545  0.10139103  0.12139819    -0.72900
O693        O  0.90924383  0.46543792  0.19672579    -0.72700
O694        O  0.53028773  0.13186249  0.24535914    -0.72200
O695        O  0.89635913  0.02131337  0.12944916    -0.72900
O696        O  0.51067823  0.11837257  0.17373917    -0.72500
O697        O  0.97176187  0.51035638  0.23981113    -0.73100
O698        O  0.89045484  0.02475453  0.31645442    -0.72500
O699        O  0.82533650  0.97432104  0.21727951    -0.73200
O700        O  0.96350571  0.08298557  0.32599678    -0.72600
O701        O  0.83170140  0.03801480  0.24971129    -0.73100
O702        O  0.93059829  0.13106148  0.28813034    -0.73000
O703        O  0.98377947  0.17420410  0.23408985    -0.72800
C704        C  0.90868777  0.05833035  0.10486792     0.79000
C705        C  0.94440184  0.47270578  0.21683661     0.79500
C706        C  0.53872503  0.12720280  0.20477630     0.78500
C707        C  0.92585802  0.04636697  0.34094206     0.78800
C708        C  0.80745571  0.99483334  0.23514159     0.80000
C709        C  0.96952502  0.16799362  0.27557873     0.79000
Zn710      Zn  0.97746136  0.37449052  0.26026603     1.49700
Zn711      Zn  0.98489993  0.32642115  0.19437278     1.49400
Zn712      Zn  0.89600551  0.28476389  0.26480923     1.49100
Zn713      Zn  0.91226605  0.33905661  0.16950269     1.49500
O714        O  0.93683622  0.32588086  0.21847527    -1.82200
O715        O  0.54559923  0.39931754  0.25355905    -0.72900
O716        O  0.99735844  0.29723035  0.24661054    -0.72700
O717        O  0.88973675  0.32196930  0.31661063    -0.72200
O718        O  0.53813415  0.39623928  0.18066176    -0.72900
O719        O  0.96244060  0.35170153  0.32311860    -0.72500
O720        O  0.93253881  0.26148068  0.28932588    -0.73100
O721        O  0.84302285  0.29275596  0.17484654    -0.72500
O722        O  0.97217381  0.30018673  0.13290052    -0.73200
O723        O  0.83868441  0.24509128  0.22965419    -0.72600
O724        O  0.94016634  0.33826831  0.11039635    -0.73100
O725        O  0.93075648  0.40465783  0.18228288    -0.73000
O726        O  0.97063320  0.42823789  0.24748709    -0.72800
C727        C  0.55961558  0.41954034  0.21549801     0.79000
C728        C  0.97395062  0.27466919  0.28236627     0.79500
C729        C  0.92700585  0.34715935  0.33849479     0.78500
C730        C  0.82738192  0.27233494  0.21340703     0.78800
C731        C  0.96238409  0.31970973  0.10189694     0.80000
C732        C  0.95081445  0.43432117  0.21475223     0.79000
Zn733      Zn  0.71416427  0.12652787  0.20454218     1.49700
Zn734      Zn  0.64235783  0.13764207  0.25589873     1.53000
Zn735      Zn  0.61171863  0.06368889  0.17646904     1.49100
Zn736      Zn  0.64816880  0.05057451  0.27180517     1.49500
O737        O  0.65510639  0.09542426  0.22601736    -1.82200
O738        O  0.74558907  0.19369093  0.23722064    -0.72900
O739        O  0.61474148  0.15584740  0.21107385    -0.72700
O740        O  0.63839332  0.08498145  0.11449189    -0.72200
O741        O  0.69595498  0.20023680  0.27697876    -0.72900
O742        O  0.71140190  0.13554135  0.13471109    -0.72500
O743        O  0.56674564  0.08150125  0.18405666    -0.73100
O744        O  0.61432107  0.49060057  0.25079990    -0.72500
O745        O  0.59741066  0.10288190  0.30665080    -0.73200
O746        O  0.59248473  0.49616779  0.18157673    -0.72600
O747        O  0.61713661  0.05251237  0.32535574    -0.73100
O748        O  0.70158466  0.04855742  0.28769492    -0.73000
O749        O  0.72701902  0.07288004  0.21782715    -0.72800
C750        C  0.73609429  0.21881324  0.26185713     0.79000
C751        C  0.57576050  0.12242469  0.19676997     0.79500
C752        C  0.67998279  0.11642028  0.10426089     0.78500
C753        C  0.59207133  0.47142711  0.21470421     0.78800
C754        C  0.59427481  0.07047690  0.33232313     0.80000
C755        C  0.71775179  0.04380838  0.25152726     0.79000
Zn756      Zn  0.49110128  0.49179218  0.52434537     1.49700
Zn757      Zn  0.51918893  0.46895319  0.42975651     1.49400
Zn758      Zn  0.91421536  0.43589181  0.42931476     1.49100
Zn759      Zn  0.49301390  0.04124553  0.43067911     1.49500
O760        O  0.48285117  0.48633345  0.45912517    -1.82200
O761        O  0.53531291  0.46040232  0.53557391    -0.72900
O762        O  0.97618277  0.41353556  0.38236107    -0.72700
O763        O  0.86932340  0.42090947  0.47603595    -0.72200
O764        O  0.54749017  0.44413111  0.46639074    -0.72900
O765        O  0.90772426  0.44498380  0.54161352    -0.72500
O766        O  0.90236574  0.37564142  0.39865285    -0.73100
O767        O  0.94529948  0.05336895  0.41679868    -0.72500
O768        O  0.56269758  0.01920240  0.39420333    -0.73200
O769        O  0.91851600  0.98380257  0.38275387    -0.72600
O770        O  0.53112772  0.05802269  0.37422658    -0.73100
O771        O  0.52966425  0.09802513  0.46799675    -0.73000
O772        O  0.52771304  0.06666257  0.53508960    -0.72800
C773        C  0.55398053  0.44483953  0.50843045     0.79000
C774        C  0.93460129  0.37919150  0.37583284     0.79500
C775        C  0.86891694  0.42387838  0.51892165     0.78500
C776        C  0.92669804  0.02582438  0.38318637     0.78800
C777        C  0.56160617  0.04947963  0.36933865     0.80000
C778        C  0.54209956  0.10449123  0.50880622     0.79000
N779        N  0.57670938  0.15544391  0.52154301    -0.01600
C780        C  0.61082378  0.18353241  0.48987884     0.01000
C781        C  0.65257491  0.19746307  0.50779074    -0.21900
C782        C  0.64656012  0.19035869  0.55353219    -0.22100
C783        C  0.60020197  0.16718451  0.56124302     0.00900
H784        H  0.68517039  0.21814851  0.49028015     0.14700
H785        H  0.67342140  0.20393813  0.57859033     0.14700
Zn786      Zn  0.54192894  0.07325030  0.97726286     1.49700
Zn787      Zn  0.51186909  0.50100290  0.91366203     1.49400
Zn788      Zn  0.56033198  0.48725860  0.97689943     1.49100
Zn789      Zn  0.95412081  0.45552657  0.98651299     1.49500
O790        O  0.52052854  0.50948807  0.97590186    -1.82200
O791        O  0.54927681  0.10275639  0.91342478    -0.72900
O792        O  0.50202312  0.43974901  0.89597859    -0.72700
O793        O  0.61272649  0.03079710  0.99916552    -0.72200
O794        O  0.47772146  0.04542345  0.89803581    -0.72900
O795        O  0.61031538  0.09670740  0.00069786    -0.72500
O796        O  0.57521218  0.48190678  0.91194351    -0.73100
O797        O  0.95002630  0.39396430  0.01335655    -0.72500
O798        O  0.95907067  0.47424771  0.88247993    -0.73200
O799        O  0.02072743  0.41122230  0.99911938    -0.72600
O800        O  0.90915353  0.42248263  0.93276244    -0.73100
O801        O  0.92824383  0.99787943  0.01145486    -0.73000
O802        O  0.99194695  0.07427413  0.00916663    -0.72800
C803        C  0.51457171  0.08501057  0.88733628     0.79000
C804        C  0.54294793  0.45834342  0.88358935     0.79500
C805        C  0.63293924  0.07682015  0.00564097     0.78500
C806        C  0.97813476  0.38090384  0.01048602     0.78800
C807        C  0.91852143  0.44024531  0.89296426     0.80000
C808        C  0.94779084  0.04447535  0.01364601     0.79000
Zn809      Zn  0.59898689  0.41257738  0.70755837     1.49700
Zn810      Zn  0.52143173  0.41318187  0.75123643     1.49400
Zn811      Zn  0.61880401  0.50189415  0.75932935     1.49100
Zn812      Zn  0.56449322  0.47402772  0.67165023     1.49500
O813        O  0.57797821  0.44939570  0.72283576    -1.82200
O814        O  0.55500077  0.34473137  0.73524756    -0.72900
O815        O  0.52025545  0.44394918  0.80736213    -0.72700
O816        O  0.68040400  0.51772855  0.75862106    -0.72200
O817        O  0.50853450  0.35486858  0.77684245    -0.72900
O818        O  0.65529658  0.44087812  0.74692204    -0.72500
O819        O  0.59469460  0.48327512  0.82262669    -0.73100
O820        O  0.61579875  0.04393681  0.63622540    -0.72500
O821        O  0.99487012  0.44350761  0.73665474    -0.73200
O822        O  0.66393347  0.08166201  0.69193561    -0.72600
O823        O  0.97168599  0.40282210  0.67332242    -0.73100
O824        O  0.55605085  0.43721235  0.61719222    -0.73000
O825        O  0.60874313  0.42425006  0.63887522    -0.72800
C826        C  0.52622692  0.33234529  0.76790256     0.79000
C827        C  0.55310215  0.46117843  0.83555425     0.79500
C828        C  0.68201275  0.48167499  0.76642880     0.78500
C829        C  0.62822588  0.07071146  0.67060501     0.78800
C830        C  0.96595552  0.42358238  0.70556114     0.80000
C831        C  0.58876241  0.43332732  0.60808575     0.79000
Zn832      Zn  0.57317947  0.11844730  0.76611574     1.49700
Zn833      Zn  0.60372486  0.19997221  0.70731693     1.49400
Zn834      Zn  0.52423593  0.09548929  0.67388377     1.49100
Zn835      Zn  0.50820145  0.13822800  0.75810510     1.49500
O836        O  0.55035305  0.13759702  0.72258447    -1.82200
O837        O  0.61862994  0.17712067  0.79911628    -0.72900
O838        O  0.60822726  0.19417219  0.63753824    -0.72700
O839        O  0.56001795  0.06659509  0.66995452    -0.72200
O840        O  0.66020754  0.20735879  0.73763058    -0.72900
O841        O  0.60425801  0.09517723  0.73168380    -0.72500
O842        O  0.54020636  0.12981189  0.61530347    -0.73100
O843        O  0.96230151  0.09254856  0.76044495    -0.72500
O844        O  0.58896788  0.24221670  0.74367955    -0.73200
O845        O  0.97229466  0.07125413  0.69210244    -0.72600
O846        O  0.51388409  0.19390809  0.73508718    -0.73100
O847        O  0.51837980  0.13453887  0.82618647    -0.73000
O848        O  0.52837269  0.07619205  0.81228324    -0.72800
C849        C  0.65654612  0.19513422  0.77923151     0.79000
C850        C  0.58146666  0.16423837  0.60675427     0.79500
C851        C  0.59511780  0.07655849  0.69247038     0.78500
C852        C  0.94677616  0.06757804  0.72458287     0.78800
C853        C  0.54814653  0.22855317  0.75465137     0.80000
C854        C  0.52062838  0.09969291  0.83999174     0.79000
Zn855      Zn  0.80691432  0.42585404  0.70720477     1.49700
Zn856      Zn  0.87562133  0.44568043  0.76254228     1.49400
Zn857      Zn  0.79659103  0.36751643  0.80738997     1.49100
Zn858      Zn  0.82717824  0.34628991  0.71740158     1.49500
O859        O  0.82002514  0.38935928  0.74791102    -1.82200
O860        O  0.88082098  0.00344890  0.68939298    -0.72900
O861        O  0.90070869  0.44658319  0.81974647    -0.72700
O862        O  0.76874422  0.40376942  0.81738284    -0.72200
O863        O  0.87907443  0.01293981  0.76149117    -0.72900
O864        O  0.77209232  0.44156714  0.75182768    -0.72500
O865        O  0.84303430  0.38807165  0.85979361    -0.73100
O866        O  0.78808213  0.27940873  0.74650481    -0.72500
O867        O  0.91965390  0.45080833  0.71815437    -0.73200
O868        O  0.75816318  0.29460970  0.80549339    -0.72600
O869        O  0.89039133  0.37133947  0.72210666    -0.73100
O870        O  0.82210430  0.35271291  0.65082707    -0.73000
O871        O  0.79841056  0.40130668  0.64056968    -0.72800
C872        C  0.89886180  0.02919206  0.72403272     0.79000
C873        C  0.88497161  0.42341042  0.85645073     0.79500
C874        C  0.76410983  0.43350757  0.79484224     0.78500
C875        C  0.76202621  0.26537590  0.78143956     0.78800
C876        C  0.92285015  0.41501042  0.71372074     0.80000
C877        C  0.81259796  0.37625930  0.62464657     0.79000
N878        N  0.68208656  0.10718660  0.01861588    -0.01600
C879        C  0.71525222  0.14112386  0.98823777     0.01000
C880        C  0.73291422  0.18769239  0.00409656    -0.21900
C881        C  0.72057536  0.18325729  0.04825071    -0.22100
C882        C  0.69205726  0.13443260  0.05697949     0.00900
H883        H  0.76012776  0.22179991  0.98892323     0.14700
H884        H  0.73398600  0.21244111  0.07244243     0.14700
N885        N  0.96181987  0.33031130  0.01809366    -0.01600
C886        C  0.97085202  0.30812640  0.98507859     0.01000
C887        C  0.00345735  0.30029598  0.00012240    -0.21900
C888        C  0.00604713  0.30626601  0.04563492    -0.22100
C889        C  0.97796587  0.32120639  0.05572959     0.00900
H890        H  0.01566410  0.28139134  0.98239496     0.14700
H891        H  0.02242596  0.29569179  0.06916657     0.14700
N892        N  0.91853165  0.06294845  0.01917542    -0.01600
C893        C  0.88494766  0.05013389  0.98688430     0.01000
C894        C  0.84270226  0.01185216  0.00352088    -0.21900
C895        C  0.84702291  0.01272200  0.04918637    -0.22100
C896        C  0.89251858  0.04751254  0.05785969     0.00900
H897        H  0.80989436  0.99414794  0.98653287     0.14700
H898        H  0.81944286  0.99271557  0.07369033     0.14700
Zn899      Zn  0.84992345  0.15674831  0.82212514     1.49700
Zn900      Zn  0.80410627  0.09850242  0.91735493     1.49400
Zn901      Zn  0.91447783  0.17851289  0.90356551     1.49100
Zn902      Zn  0.84289483  0.21140527  0.90631461     1.49500
O903        O  0.85249697  0.16065537  0.88844516    -1.82200
O904        O  0.81586652  0.08387280  0.80263342    -0.72900
O905        O  0.83984080  0.07648004  0.95411945    -0.72700
O906        O  0.95929139  0.20946518  0.84914930    -0.72200
O907        O  0.77456035  0.04896603  0.86589967    -0.72900
O908        O  0.91565476  0.20838530  0.79430504    -0.72500
O909        O  0.91501895  0.12365056  0.93946065    -0.73100
O910        O  0.89914041  0.26768324  0.94241651    -0.72500
O911        O  0.75128093  0.10063191  0.95493290    -0.73200
O912        O  0.94052572  0.23658175  0.94281641    -0.72600
O913        O  0.78440785  0.17925069  0.94429018    -0.73100
O914        O  0.82389621  0.23422932  0.85180525    -0.73000
O915        O  0.80467907  0.17290405  0.80633200    -0.72800
C916        C  0.78339382  0.04625414  0.82423234     0.79000
C917        C  0.88049891  0.08588208  0.95872314     0.79500
C918        C  0.95559259  0.22427298  0.81031723     0.78500
C919        C  0.93483733  0.26949580  0.95469973     0.78800
C920        C  0.75103636  0.13867397  0.96067681     0.80000
C921        C  0.79765610  0.20361863  0.82184984     0.79000
N922        N  0.75438707  0.99984761  0.80155698    -0.01600
C923        C  0.74839974  0.45878886  0.82054979     0.01000
C924        C  0.70957867  0.43028200  0.84710976    -0.21900
C925        C  0.68271730  0.44624874  0.83756980    -0.22100
C926        C  0.70691399  0.48313720  0.80601611     0.00900
H927        H  0.69708098  0.39495081  0.86160441     0.14700
H928        H  0.64631163  0.42634115  0.84433120     0.14700
N929        N  0.99739378  0.26204078  0.78638759    -0.01600
C930        C  0.53821751  0.24882438  0.79230943     0.01000
C931        C  0.57270173  0.28460951  0.81880287    -0.21900
C932        C  0.55975154  0.31516784  0.82701418    -0.22100
C933        C  0.52034050  0.29777523  0.80194358     0.00900
H934        H  0.60699211  0.29324468  0.82298791     0.14700
H935        H  0.58302843  0.35212636  0.83806717     0.14700
N936        N  0.73571249  0.21536521  0.79446601    -0.01600
C937        C  0.75073437  0.19111653  0.81663329     0.01000
C938        C  0.71436342  0.14948995  0.83701824    -0.21900
C939        C  0.67588683  0.14838390  0.82801024    -0.22100
C940        C  0.68983852  0.18868260  0.80142211     0.00900
H941        H  0.71586965  0.12317505  0.85706423     0.14700
H942        H  0.64121630  0.12066640  0.83887739     0.14700
Zn943      Zn  0.65846477  0.83829612  0.45628879     1.49700
Zn944      Zn  0.63725174  0.87487958  0.36442564     1.49400
Zn945      Zn  0.73542457  0.88639859  0.37414768     1.49100
Zn946      Zn  0.64158581  0.77773189  0.36504557     1.49500
O947        O  0.66852016  0.84479575  0.38976496    -1.82200
O948        O  0.63075612  0.87671144  0.47829622    -0.72900
O949        O  0.67944447  0.92942375  0.31815907    -0.72700
O950        O  0.77704164  0.89832252  0.43283325    -0.72200
O951        O  0.61831799  0.90446875  0.41521783    -0.72900
O952        O  0.72216446  0.86529314  0.48592506    -0.72500
O953        O  0.74879639  0.94539206  0.33181947    -0.73100
O954        O  0.68430733  0.77416213  0.31950305    -0.72500
O955        O  0.58079741  0.82236267  0.32905471    -0.73200
O956        O  0.74745614  0.84829008  0.32864029    -0.72600
O957        O  0.58448701  0.75792114  0.32936608    -0.73100
O958        O  0.62409878  0.72801863  0.41707306    -0.73000
O959        O  0.61976418  0.76495081  0.47738611    -0.72800
C960        C  0.61833087  0.90201334  0.45860936     0.79000
C961        C  0.72250742  0.95373735  0.30935958     0.79500
C962        C  0.76419608  0.88438812  0.47419361     0.78500
C963        C  0.72579334  0.80712924  0.30879550     0.78800
C964        C  0.56434113  0.77835591  0.31798468     0.80000
C965        C  0.61532002  0.72768588  0.45920533     0.79000
N966        N  0.76637690  0.77866322  0.25834003    -0.01600
C967        C  0.74697421  0.80395421  0.26627274     0.01000
C968        C  0.76337685  0.84160563  0.23538193    -0.21900
C969        C  0.79451729  0.84130868  0.20858321    -0.22100
C970        C  0.79684813  0.80365031  0.22405961     0.00900
H971        H  0.75687664  0.86960091  0.23546577     0.14700
H972        H  0.81724129  0.86949262  0.18440025     0.14700
N973        N  0.74046243  0.98521188  0.26897896    -0.01600
C974        C  0.71669600  0.50116541  0.25087145     0.01000
C975        C  0.70560420  0.48263306  0.20745206    -0.21900
C976        C  0.72916429  0.46229381  0.19950518    -0.22100
C977        C  0.75399798  0.46976533  0.23826025     0.00900
H978        H  0.69074550  0.49239632  0.18122581     0.14700
H979        H  0.73652272  0.45511801  0.16605272     0.14700
N980        N  0.51960765  0.74943047  0.29654277    -0.01600
C981        C  0.98861982  0.75540035  0.31480520     0.01000
C982        C  0.96158907  0.72486834  0.34991465    -0.21900
C983        C  0.96709308  0.68767332  0.34828485    -0.22100
C984        C  0.99299369  0.69677896  0.30898746     0.00900
H985        H  0.93307550  0.72287869  0.36612307     0.14700
H986        H  0.94257712  0.65236419  0.36338517     0.14700
N987        N  0.82715593  0.90536380  0.53650680    -0.01600
C988        C  0.79194455  0.87483756  0.50656253     0.01000
C989        C  0.76900183  0.82736523  0.52126736    -0.21900
C990        C  0.78451651  0.82730797  0.56308795    -0.22100
C991        C  0.81700395  0.87507078  0.57313553     0.00900
H992        H  0.73885116  0.79724410  0.50622970     0.14700
H993        H  0.76837210  0.79668004  0.58641496     0.14700
N994        N  0.58349711  0.93048172  0.51768233    -0.01600
C995        C  0.61717639  0.93927578  0.48648273     0.01000
C996        C  0.66030194  0.97189198  0.50441691    -0.21900
C997        C  0.65434352  0.97493857  0.54931341    -0.22100
C998        C  0.60771943  0.94755734  0.55688211     0.00900
H999        H  0.69286576  0.98292552  0.48928907     0.14700
H1000       H  0.68119659  0.99152423  0.57452975     0.14700
Zn1001     Zn  0.95896432  0.61549433  0.17869116     1.49700
Zn1002     Zn  0.88336455  0.50246790  0.18670408     1.49400
Zn1003     Zn  0.96942691  0.56657574  0.25227282     1.49100
Zn1004     Zn  0.89007839  0.55827157  0.26099163     1.49500
O1005       O  0.92288970  0.55965694  0.21390196    -1.82200
O1006       O  0.92949343  0.59908931  0.11442002    -0.72900
O1007       O  0.92566725  0.97787333  0.20909836    -0.72700
O1008       O  0.53268219  0.63034975  0.23896950    -0.72200
O1009       O  0.88822133  0.51790031  0.12205753    -0.72900
O1010       O  0.51662233  0.61598769  0.16687956    -0.72500
O1011       O  0.98460536  0.02777878  0.25471610    -0.73100
O1012       O  0.88222270  0.51216401  0.30811650    -0.72500
O1013       O  0.81815891  0.47123508  0.21129834    -0.73200
O1014       O  0.95637795  0.56442464  0.31831260    -0.72600
O1015       O  0.82920311  0.53630328  0.24533496    -0.73100
O1016       O  0.93068260  0.62178197  0.28484933    -0.73000
O1017       O  0.98119895  0.66876463  0.23018806    -0.72800
C1018       C  0.90588383  0.55597620  0.09755137     0.79000
C1019       C  0.96168452  0.98977155  0.23111605     0.79500
C1020       C  0.54349674  0.62587323  0.19948073     0.78500
C1021       C  0.91716482  0.53031590  0.33293438     0.78800
C1022       C  0.80282731  0.49290176  0.23172011     0.80000
C1023       C  0.96749825  0.66106283  0.27203184     0.79000
Zn1024     Zn  0.99562317  0.89039361  0.26870522     1.49700
Zn1025     Zn  0.99020222  0.83185530  0.19684607     1.49400
Zn1026     Zn  0.90789064  0.80554025  0.26890269     1.49100
Zn1027     Zn  0.93616290  0.86942057  0.18143033     1.49500
O1028       O  0.95281240  0.84517392  0.22626441    -1.82200
O1029       O  0.54149787  0.89343608  0.24742968    -0.72900
O1030       O  0.99557749  0.79593192  0.24739035    -0.72700
O1031       O  0.91071935  0.84605102  0.32122477    -0.72200
O1032       O  0.53378154  0.89322967  0.17421898    -0.72900
O1033       O  0.98080328  0.86691026  0.33133534    -0.72500
O1034       O  0.93309251  0.76910814  0.29190858    -0.73100
O1035       O  0.87045481  0.84052440  0.19336629    -0.72500
O1036       O  0.96076409  0.80079489  0.13893514    -0.73200
O1037       O  0.84611563  0.77861286  0.24194447    -0.72600
O1038       O  0.94740583  0.85625714  0.11980712    -0.73100
O1039       O  0.96950108  0.93784104  0.18950408    -0.73000
O1040       O  0.98959746  0.94637315  0.26239453    -0.72800
C1041       C  0.55449268  0.91541055  0.20990684     0.79000
C1042       C  0.97139036  0.77467621  0.28308686     0.79500
C1043       C  0.94723504  0.86759422  0.34434157     0.78500
C1044       C  0.83906751  0.80571583  0.21782320     0.78800
C1045       C  0.94980324  0.82103063  0.10993993     0.80000
C1046       C  0.97622112  0.95780778  0.22758906     0.79000
Zn1047     Zn  0.72453700  0.63372281  0.20782378     1.49700
Zn1048     Zn  0.64887003  0.64029204  0.25730871     1.53000
Zn1049     Zn  0.62214431  0.56758395  0.17718255     1.49100
Zn1050     Zn  0.65565099  0.55563456  0.27490696     1.49500
O1051       O  0.66394045  0.60028655  0.22806362    -1.82200
O1052       O  0.75501757  0.70425374  0.23562034    -0.72900
O1053       O  0.61930776  0.65662168  0.21261052    -0.72700
O1054       O  0.64989049  0.59021982  0.11538118    -0.72200
O1055       O  0.70165588  0.70275892  0.27744802    -0.72900
O1056       O  0.72194534  0.64170384  0.13781880    -0.72500
O1057       O  0.57560480  0.58329558  0.18203430    -0.73100
O1058       O  0.60711253  0.98612988  0.24685102    -0.72500
O1059       O  0.60462339  0.60711488  0.30875546    -0.73200
O1060       O  0.58241050  0.99246334  0.17959845    -0.72600
O1061       O  0.62483993  0.55769650  0.32857954    -0.73100
O1062       O  0.71011782  0.55744792  0.29278032    -0.73000
O1063       O  0.73696226  0.57944827  0.22308184    -0.72800
C1064       C  0.74113130  0.72613682  0.25939249     0.79000
C1065       C  0.58213965  0.62302000  0.19501530     0.79500
C1066       C  0.69146842  0.62309944  0.10645060     0.78500
C1067       C  0.58427457  0.96747480  0.21099803     0.78800
C1068       C  0.60198865  0.57563464  0.33527545     0.80000
C1069       C  0.72506276  0.55011630  0.25726192     0.79000
Zn1070     Zn  0.48447889  0.98479053  0.52196142     1.49700
Zn1071     Zn  0.51269805  0.96332890  0.42663341     1.49400
Zn1072     Zn  0.92765484  0.95169664  0.43336272     1.49100
Zn1073     Zn  0.49801904  0.54690241  0.43140379     1.49500
O1074       O  0.47617482  0.97965688  0.45694574    -1.82200
O1075       O  0.53004526  0.95529667  0.53240181    -0.72900
O1076       O  0.99627355  0.93848838  0.38382265    -0.72700
O1077       O  0.87793632  0.93120638  0.47570589    -0.72200
O1078       O  0.54176173  0.93955829  0.46279451    -0.72900
O1079       O  0.91201497  0.95499404  0.54320917    -0.72500
O1080       O  0.92266163  0.89524345  0.40384538    -0.73100
O1081       O  0.93338855  0.53740465  0.40954398    -0.72500
O1082       O  0.56949854  0.52401384  0.39688251    -0.73200
O1083       O  0.90443280  0.46668490  0.37755724    -0.72600
O1084       O  0.54010659  0.56530099  0.37779895    -0.73100
O1085       O  0.53005723  0.60329492  0.47001081    -0.73000
O1086       O  0.53334022  0.57389351  0.53645816    -0.72800
C1087       C  0.54917961  0.94082620  0.50465829     0.79000
C1088       C  0.95534852  0.90135485  0.37976902     0.79500
C1089       C  0.87466331  0.93312338  0.51828100     0.78500
C1090       C  0.91474751  0.50952469  0.37626278     0.78800
C1091       C  0.56953586  0.55530667  0.37253307     0.80000
C1092       C  0.54440142  0.61085635  0.51023882     0.79000
N1093       N  0.57807768  0.66243787  0.52162203    -0.01600
C1094       C  0.61180542  0.68923446  0.48949064     0.01000
C1095       C  0.65381008  0.70483731  0.50782942    -0.21900
C1096       C  0.64815946  0.70078212  0.55377002    -0.22100
C1097       C  0.60176119  0.67719404  0.56128869     0.00900
H1098       H  0.68605179  0.72488764  0.48993484     0.14700
H1099       H  0.67519187  0.71660627  0.57878585     0.14700
Zn1100     Zn  0.54993442  0.57867671  0.97831623     1.49700
Zn1101     Zn  0.49828143  0.00230424  0.90784172     1.49400
Zn1102     Zn  0.54823941  0.97787058  0.96931472     1.49100
Zn1103     Zn  0.94780641  0.95086027  0.99024478     1.49500
O1104       O  0.51110653  0.00379552  0.96966966    -1.82200
O1105       O  0.55443362  0.60345720  0.91361407    -0.72900
O1106       O  0.55445701  0.02794238  0.87099020    -0.72700
O1107       O  0.62410081  0.54093452  0.00368630    -0.72200
O1108       O  0.56440386  0.55257544  0.87869405    -0.72900
O1109       O  0.62003523  0.60576585  0.00141848    -0.72500
O1110       O  0.56863539  0.97817491  0.90378911    -0.73100
O1111       O  0.93893425  0.88772016  0.01772544    -0.72500
O1112       O  0.95326985  0.99386690  0.90080861    -0.73200
O1113       O  0.00618637  0.89659087  0.00386124    -0.72600
O1114       O  0.91002467  0.92212716  0.93221972    -0.73100
O1115       O  0.93449914  0.50253658  0.00881817    -0.73000
O1116       O  0.99615113  0.57938346  0.99887620    -0.72800
C1117       C  0.56090324  0.58784791  0.87732287     0.79000
C1118       C  0.57355233  0.00555831  0.87058742     0.79500
C1119       C  0.64347138  0.58691114  0.00785687     0.78500
C1120       C  0.96327819  0.86996798  0.01579077     0.78800
C1121       C  0.91793911  0.95090444  0.89972921     0.80000
C1122       C  0.95265345  0.54899770  0.00738790     0.79000
Zn1123     Zn  0.60402513  0.92577644  0.70191532     1.49700
Zn1124     Zn  0.55332761  0.94889499  0.76107080     1.49400
Zn1125     Zn  0.63953930  0.03202914  0.74175784     1.49100
Zn1126     Zn  0.56542442  0.97855036  0.66000326     1.49500
O1127       O  0.59252378  0.97148557  0.71245071    -1.82200
O1128       O  0.55184173  0.86049902  0.72837710    -0.72900
O1129       O  0.58934273  0.96622741  0.81727125    -0.72700
O1130       O  0.68623440  0.02455715  0.76608761    -0.72200
O1131       O  0.50781586  0.87867105  0.76350300    -0.72900
O1132       O  0.65788289  0.94859051  0.74338305    -0.72500
O1133       O  0.61074833  0.03978304  0.79896743    -0.73100
O1134       O  0.61656038  0.54049983  0.66191353    -0.72500
O1135       O  0.98955195  0.91294795  0.68848474    -0.73200
O1136       O  0.61974248  0.55608001  0.73525235    -0.72600
O1137       O  0.02364810  0.99139138  0.68686156    -0.73100
O1138       O  0.55344891  0.93137423  0.61314177    -0.73000
O1139       O  0.61395590  0.93165215  0.63368839    -0.72800
C1140       C  0.51960374  0.84998933  0.75640486     0.79000
C1141       C  0.59497520  0.00550753  0.82837358     0.79500
C1142       C  0.68464020  0.98580805  0.76782978     0.78500
C1143       C  0.61878062  0.56643090  0.69403197     0.78800
C1144       C  0.98767914  0.94910261  0.69227632     0.80000
C1145       C  0.58946672  0.93387642  0.60303141     0.79000
Zn1146     Zn  0.59755875  0.64711007  0.75386523     1.49700
Zn1147     Zn  0.60759202  0.72195538  0.70497133     1.49400
Zn1148     Zn  0.53150781  0.61255469  0.67657631     1.49100
Zn1149     Zn  0.52205223  0.64467543  0.77273093     1.49500
O1150       O  0.55958189  0.65832882  0.72336475    -1.82200
O1151       O  0.63856896  0.70377904  0.79173540    -0.72900
O1152       O  0.60849391  0.71054506  0.63485338    -0.72700
O1153       O  0.56303290  0.57901470  0.67676948    -0.72200
O1154       O  0.67189399  0.73760750  0.72816815    -0.72900
O1155       O  0.62962120  0.63969715  0.70394695    -0.72500
O1156       O  0.54351296  0.64037318  0.61623804    -0.73100
O1157       O  0.95399544  0.57768703  0.75927308    -0.72500
O1158       O  0.58240296  0.75829702  0.73851595    -0.73200
O1159       O  0.95156584  0.56686016  0.68472806    -0.72600
O1160       O  0.52288036  0.70004664  0.78099873    -0.73100
O1161       O  0.54399594  0.63306946  0.83090690    -0.73000
O1162       O  0.56774149  0.59252816  0.79756855    -0.72800
C1163       C  0.67333120  0.72128227  0.76683887     0.79000
C1164       C  0.58301785  0.67688500  0.60598261     0.79500
C1165       C  0.60499786  0.59817715  0.68679473     0.78500
C1166       C  0.93201143  0.55769062  0.72311102     0.78800
C1167       C  0.54880950  0.74318782  0.76703904     0.80000
C1168       C  0.55821928  0.60586876  0.83340845     0.79000
Zn1169     Zn  0.82287736  0.93952037  0.70399251     1.49700
Zn1170     Zn  0.89201828  0.96298294  0.76310428     1.49400
Zn1171     Zn  0.81035994  0.87797805  0.80029820     1.49100
Zn1172     Zn  0.84881942  0.86514853  0.71260882     1.49500
O1173       O  0.83876001  0.90516260  0.74411857    -1.82200
O1174       O  0.86400797  0.49106991  0.69354056    -0.72900
O1175       O  0.90980595  0.96413581  0.82488305    -0.72700
O1176       O  0.78104051  0.91205309  0.81123914    -0.72200
O1177       O  0.86936118  0.50051295  0.76606195    -0.72900
O1178       O  0.78583974  0.95322396  0.74796606    -0.72500
O1179       O  0.85232980  0.89533890  0.85478943    -0.73100
O1180       O  0.81097751  0.79735023  0.73944287    -0.72500
O1181       O  0.94219571  0.97385045  0.72192795    -0.73200
O1182       O  0.77131694  0.80592100  0.79302796    -0.72600
O1183       O  0.91345901  0.89491172  0.71519126    -0.73100
O1184       O  0.83800172  0.86794435  0.64635930    -0.73000
O1185       O  0.80902815  0.91198545  0.63908961    -0.72800
C1186       C  0.88471092  0.51744398  0.72725884     0.79000
C1187       C  0.89133561  0.93543556  0.85822649     0.79500
C1188       C  0.77581322  0.94207432  0.79028899     0.78500
C1189       C  0.77909421  0.77947061  0.76927729     0.78800
C1190       C  0.94562069  0.93955555  0.70994128     0.80000
C1191       C  0.82337868  0.88778508  0.62165459     0.79000
N1192       N  0.69260269  0.61803597  0.01989390    -0.01600
C1193       C  0.72599199  0.65137731  0.98955480     0.01000
C1194       C  0.75035070  0.69727508  0.00880847    -0.21900
C1195       C  0.73855827  0.69170360  0.05325240    -0.22100
C1196       C  0.70493915  0.64331387  0.05977596     0.00900
H1197       H  0.78017272  0.73024399  0.99468893     0.14700
H1198       H  0.75536952  0.71941000  0.07894242     0.14700
N1199       N  0.94072450  0.81807228  0.02539115    -0.01600
C1200       C  0.90726599  0.78122029  0.99917806     0.01000
C1201       C  0.87623940  0.74112623  0.02543083    -0.21900
C1202       C  0.89195531  0.75082193  0.06833439    -0.22100
C1203       C  0.93071195  0.79741503  0.06751703     0.00900
H1204       H  0.84826741  0.70588851  0.01348149     0.14700
H1205       H  0.87606226  0.72693201  0.09748167     0.14700
N1206       N  0.92228707  0.56634146  0.01280589    -0.01600
C1207       C  0.89052459  0.55501406  0.97884999     0.01000
C1208       C  0.84848277  0.51314932  0.99117304    -0.21900
C1209       C  0.84942806  0.51043388  0.03696803    -0.22100
C1210       C  0.89341925  0.54687462  0.04939352     0.00900
H1211       H  0.81692463  0.49533409  0.97193646     0.14700
H1212       H  0.82030738  0.48727470  0.05910099     0.14700
Zn1213     Zn  0.85339325  0.65397789  0.81628517     1.49700
Zn1214     Zn  0.80638796  0.60203657  0.91421217     1.49400
Zn1215     Zn  0.91403869  0.68676407  0.90692223     1.49100
Zn1216     Zn  0.83870052  0.71117647  0.89028848     1.49500
O1217       O  0.85273498  0.66224416  0.88187100    -1.82200
O1218       O  0.81683306  0.57972458  0.80187252    -0.72900
O1219       O  0.84288236  0.57992542  0.94943618    -0.72700
O1220       O  0.96139904  0.72084939  0.85701947    -0.72200
O1221       O  0.77379523  0.55051878  0.86497682    -0.72900
O1222       O  0.92197530  0.70064050  0.79241308    -0.72500
O1223       O  0.91809589  0.63249523  0.93925001    -0.73100
O1224       O  0.89102119  0.77094683  0.92157983    -0.72500
O1225       O  0.75790438  0.60820932  0.95467370    -0.73200
O1226       O  0.92461867  0.73767191  0.95245167    -0.72600
O1227       O  0.78314776  0.68272694  0.93200674    -0.73100
O1228       O  0.81956912  0.73018893  0.83393447    -0.73000
O1229       O  0.81202381  0.67292893  0.78945774    -0.72800
C1230       C  0.78255770  0.54464457  0.82421161     0.79000
C1231       C  0.88426569  0.59170717  0.95483168     0.79500
C1232       C  0.96025403  0.72478839  0.81400741     0.78500
C1233       C  0.91289716  0.76760202  0.95385789     0.78800
C1234       C  0.75507284  0.64498805  0.95580137     0.80000
C1235       C  0.80180946  0.70280478  0.79980024     0.79000
N1236       N  0.75105769  0.49793985  0.80296669    -0.01600
C1237       C  0.75526969  0.96197875  0.81683833     0.01000
C1238       C  0.71569971  0.92815526  0.84045817    -0.21900
C1239       C  0.68546520  0.93960978  0.83107597    -0.22100
C1240       C  0.70902690  0.98065886  0.80409411     0.00900
H1241       H  0.70592379  0.89278412  0.85247784     0.14700
H1242       H  0.64865418  0.91566079  0.83556759     0.14700
N1243       N  0.00267993  0.76149398  0.79106758    -0.01600
C1244       C  0.53840860  0.77522535  0.78668826     0.01000
C1245       C  0.56809982  0.81346485  0.81394872    -0.21900
C1246       C  0.54695720  0.83657407  0.82135587    -0.22100
C1247       C  0.50919928  0.81464997  0.79257137     0.00900
H1248       H  0.60230172  0.82515276  0.82412279     0.14700
H1249       H  0.56469713  0.87310563  0.83448182     0.14700
N1250       N  0.74898110  0.72808391  0.77413821    -0.01600
C1251       C  0.75963056  0.69500291  0.78025583     0.01000
C1252       C  0.71957427  0.64920664  0.78491806    -0.21900
C1253       C  0.68406307  0.65458516  0.78307932    -0.22100
C1254       C  0.70263400  0.70301442  0.77478731     0.00900
H1255       H  0.71655701  0.61609951  0.79419205     0.14700
H1256       H  0.64848775  0.62605403  0.78838615     0.14700
loop_ 
_geom_bond_atom_site_label_1 
_geom_bond_atom_site_label_2 
_geom_bond_distance 
_geom_bond_site_symmetry_2 
_ccdc_geom_bond_type 
Zn1           O5   1.983       .  S
Zn1           O6   2.115       .  S
Zn1          O10   2.066       .  S
Zn1          O17   2.114       .  S
Zn2           O5   2.000       .  S
Zn2           O7   2.054       .  S
Zn2           O9   2.092       .  S
Zn2          O13   2.033       .  S
Zn3           O5   1.985       .  S
Zn3           O8   2.153       .  S
Zn3          O11   2.151       .  S
Zn3          O14   2.028       .  S
Zn4           O5   2.043       .  S
Zn4          O12   2.139       .  S
Zn4          O15   2.070       .  S
Zn4          O16   2.093       .  S
O6           C18   1.289       .  A
O7           C19   1.278       .  A
O8           C20   1.288       .  A
O9           C18   1.279       .  A
O10          C20   1.284       .  A
O11          C19   1.294       .  A
O12          C21   1.279       .  A
O13          C22   1.282       .  A
O14          C21   1.279       .  A
O15          C22   1.284       .  A
O16          C23   1.283       .  A
O17          C23   1.287       .  A
C18          C53   1.516       .  S
C19          N31   1.467       .  S
C20          C46   1.521       .  S
C21          C25   1.518       .  S
C22          N38   1.455       .  S
C23         C152   1.513       .  S
N24         C122   1.449       .  S
N24          C28   1.361       .  A
N24          C25   1.389       .  A
C25          C26   1.389       .  A
C26          C27   1.355       .  A
C26          H29   1.083       .  S
C27          C28   1.366       .  A
C27          H30   1.070       .  S
C28         C102   1.473       .  S
N31         C349   1.360       .  A
N31         C346   1.371       .  A
C32         C127   1.505       .  S
C32         N345   1.372   1_545  A
C32          C33   1.386   1_545  A
C33          C34   1.362       .  A
C33          H36   1.083       .  S
C34          C35   1.377       .  A
C34          H37   1.083       .  S
C35          C80   1.453       .  S
C35         N345   1.360       .  A
N38         C670   1.347   1_455  A
N38         C667   1.346   1_455  A
C39         C100   1.453       .  S
C39         N666   1.344       .  A
C39          C40   1.385       .  A
C40          C41   1.365       .  A
C40          H43   1.083       .  S
C41          C42   1.394       .  A
C41          H44   1.083       .  S
C42          C81   1.479       .  S
C42         N666   1.344       .  A
N45         C147   1.481       .  S
N45          C49   1.378       .  A
N45          C46   1.392       .  A
C46          C47   1.373       .  A
C47          C48   1.350       .  A
C47          H50   1.068       .  S
C48          C49   1.374       .  A
C48          H51   1.084       .  S
C49         C249   1.478       .  S
N52         C145   1.490       .  S
N52          C56   1.359       .  A
N52          C53   1.389       .  A
C53          C54   1.386       .  A
C54          C55   1.360       .  A
C54          H57   1.084       .  S
C55          C56   1.375       .  A
C55          H58   1.083       .  S
C56         C203   1.463       .  S
Zn59         O63   1.846       .  S
Zn59         O64   2.068       .  S
Zn59         O75   2.106       .  S
Zn59        O696   1.958       .  S
Zn60         O63   1.786       .  S
Zn60         O67   1.956       .  S
Zn60         O71   2.055   1_545  S
Zn60        O379   1.932   1_545  S
Zn61         O63   1.918       .  S
Zn61         O72   1.988       .  S
Zn61        O694   1.975       .  S
Zn61        O383   1.969       .  S
Zn62         O63   1.793       .  S
Zn62         O70   1.951       .  S
Zn62         O73   1.906       .  S
Zn62         O74   1.905       .  S
O64          C76   1.290       .  A
O65        Zn374   1.951       .  S
O65          C77   1.276       .  A
O66        Zn689   1.973   1_455  S
O66          C78   1.267       .  A
O67          C76   1.272       .  A
O68        Zn687   1.951   1_455  S
O68          C78   1.258       .  A
O69        Zn375   1.958       .  S
O69          C77   1.269       .  A
O70          C79   1.260       .  A
O71          C80   1.280       .  A
O72          C79   1.268       .  A
O73          C80   1.269   1_545  A
O74          C81   1.271       .  A
O75          C81   1.295       .  A
C76         C268   1.464       .  S
C77         C104   1.428       .  S
C78         C123   1.422       .  S
C79         C148   1.422       .  S
Zn82         O86   1.892       .  S
Zn82         O91   1.955       .  S
Zn82         O98   1.990       .  S
Zn82        O715   1.963       .  S
Zn83         O86   1.840       .  S
Zn83         O88   2.010       .  S
Zn83         O94   1.974       .  S
Zn83        O718   2.004       .  S
Zn84         O86   1.882       .  S
Zn84         O89   2.061       .  S
Zn84         O92   1.963       .  S
Zn84         O95   1.970       .  S
Zn85         O86   1.857       .  S
Zn85         O93   2.015       .  S
Zn85         O96   1.998       .  S
Zn85         O97   1.927       .  S
O87        Zn710   1.962   1_455  S
O87          C99   1.254       .  A
O88         C100   1.284       .  A
O89         C101   1.271       .  A
O90        Zn711   2.002   1_455  S
O90          C99   1.258       .  A
O91         C101   1.258       .  A
O92         C100   1.280       .  A
O93         C102   1.273       .  A
O94         C103   1.280       .  A
O95         C102   1.274       .  A
O96         C103   1.271       .  A
O97         C104   1.271       .  A
O98         C104   1.277       .  A
C99         C125   1.440       .  S
C101        C146   1.455       .  S
C103        C261   1.461       .  S
Zn105       O109   1.841       .  S
Zn105       O110   2.113       .  S
Zn105       O114   2.109       .  S
Zn105       O121   2.124       .  S
Zn106       O109   1.926       .  S
Zn106       O111   1.931       .  S
Zn106       O113   1.959       .  S
Zn106       O117   2.005       .  S
Zn107       O109   1.953       .  S
Zn107       O112   1.984       .  S
Zn107       O115   2.000       .  S
Zn107       O432   1.989   1_545  S
Zn108       O109   1.914       .  S
Zn108       O119   1.941       .  S
Zn108       O120   1.973       .  S
Zn108       O430   1.944   1_545  S
O110        C122   1.296       .  A
O111        C123   1.259       .  A
O112        C124   1.263       .  A
O113        C122   1.260       .  A
O114        C124   1.289       .  A
O115        C123   1.277       .  A
O116       Zn422   1.958       .  S
O116        C125   1.268       .  A
O117        C126   1.270       .  A
O118       Zn421   1.987       .  S
O118        C125   1.270       .  A
O119        C126   1.267       .  A
O120        C127   1.261       .  A
O121        C127   1.290       .  A
C124        C254   1.482       .  S
C126        C149   1.444       .  S
Zn128       O132   1.948       .  S
Zn128       O133   2.335   1_655  S
Zn128       O765   2.320       .  S
Zn128       O458   2.268   1_655  S
Zn129       O132   1.888   1_455  S
Zn129       O136   1.954       .  S
Zn129       O762   1.948   1_455  S
Zn129       O454   1.938       .  S
Zn130       O760   1.968       .  S
Zn130       O135   1.930       .  S
Zn130       O138   2.022       .  S
Zn130       O455   1.978       .  S
Zn131       O446   1.941   1_445  S
Zn131       O142   2.014       .  S
Zn131       O143   1.944       .  S
Zn131       O767   1.953   1_455  S
O132       Zn758   1.969       .  S
O132       Zn445   1.964       .  S
O133        C145   1.317       .  A
O134       Zn757   1.944       .  S
O134        C146   1.267       .  A
O135        C147   1.269       .  A
O136        C145   1.262       .  A
O137       Zn756   2.323       .  S
O137        C147   1.320       .  A
O138        C146   1.268       .  A
O139       Zn759   1.938       .  S
O139        C148   1.257       .  A
O140       Zn443   1.943   1_545  S
O140        C149   1.265       .  A
O141       Zn444   1.964       .  S
O141        C148   1.262   1_565  A
O142        C149   1.270       .  A
O143        C150   1.264       .  A
O144       Zn442   2.317   1_445  S
O144        C150   1.315       .  A
C150        N151   1.481       .  S
N151        C155   1.367       .  A
N151        C152   1.378       .  A
C152        C153   1.378       .  A
C153        C154   1.366       .  A
C153        H156   1.077       .  S
C154        C155   1.375       .  A
C154        H157   1.082       .  S
C155        C222   1.480       .  S
Zn158       O476   1.934   1_545  S
Zn158       O163   2.040       .  S
Zn158       O167   2.174   1_556  S
Zn158       O802   2.156   1_456  S
Zn159       O162   1.865       .  S
Zn159       O164   1.975       .  S
Zn159       O480   1.963       .  S
Zn159       O798   1.917   1_455  S
Zn160       O162   1.955       .  S
Zn160       O168   2.068       .  S
Zn160       O479   2.089   1_556  S
Zn160       O799   2.072       .  S
Zn161       O790   1.948       .  S
Zn161       O169   2.148   1_556  S
Zn161       O172   2.053       .  S
Zn161       O487   2.155   1_556  S
O162       Zn472   1.920       .  S
O162       Zn789   1.960   1_455  S
O163        C175   1.270       .  A
O164        C176   1.258       .  A
O165       Zn474   2.155   1_544  S
O165        C177   1.296       .  A
O166       Zn473   1.954   1_545  S
O166        C175   1.252       .  A
O167        C177   1.304       .  A
O168        C176   1.268       .  A
O169        C178   1.297       .  A
O170       Zn787   1.935       .  S
O170        C179   1.260       .  A
O171       Zn788   2.063   1_554  S
O171        C178   1.290       .  A
O172        C179   1.266       .  A
O173       Zn475   2.090   1_544  S
O173        C180   1.293       .  A
O174       Zn786   2.171   1_554  S
O174        C180   1.296       .  A
C175        C226   1.448       .  S
C176        C199   1.460       .  S
C177        N250   1.484       .  S
C178        N257   1.466       .  S
C179        C245   1.453       .  S
C180        N264   1.480       .  S
Zn181       O185   1.817       .  S
Zn181       O186   2.104       .  S
Zn181       O190   2.097       .  S
Zn181       O197   2.057       .  S
Zn182       O185   1.837       .  S
Zn182       O187   1.964       .  S
Zn182       O189   1.988   1_455  S
Zn182       O821   1.941   1_455  S
Zn183       O185   1.855       .  S
Zn183       O188   1.943       .  S
Zn183       O191   2.063       .  S
Zn183       O508   1.922       .  S
Zn184       O185   1.922       .  S
Zn184       O196   1.936       .  S
Zn184       O506   1.912       .  S
Zn184       O823   1.958   1_455  S
O186        C198   1.289   1_455  A
O187        C199   1.268       .  A
O188        C200   1.262       .  A
O189        C198   1.267       .  A
O190        C200   1.293       .  A
O191        C199   1.278       .  A
O192       Zn498   1.931   1_545  S
O192        C201   1.263       .  A
O193       Zn810   1.923       .  S
O193        C202   1.259       .  A
O194       Zn497   1.934       .  S
O194        C201   1.271       .  A
O195       Zn812   1.985       .  S
O195        C202   1.262       .  A
O196        C203   1.257       .  A
O197        C203   1.282       .  A
C198        C305   1.460   1_655  S
C200        C298   1.472       .  S
C201        C223   1.411       .  S
C202        C248   1.423       .  S
Zn204       O208   1.813       .  S
Zn204       O209   1.959       .  S
Zn204       O213   1.951       .  S
Zn204       O220   1.977       .  S
Zn205       O208   1.886       .  S
Zn205       O210   2.137       .  S
Zn205       O212   2.121       .  S
Zn205       O216   2.093       .  S
Zn206       O208   1.865       .  S
Zn206       O211   1.991       .  S
Zn206       O214   1.932       .  S
Zn206       O845   1.970   1_455  S
Zn207       O208   1.838       .  S
Zn207       O218   1.843       .  S
Zn207       O219   1.996       .  S
Zn207       O843   1.943   1_455  S
O209        C221   1.253       .  A
O210        C222   1.294       .  A
O211        C223   1.277       .  A
O212        C221   1.276       .  A
O213        C223   1.256       .  A
O214        C222   1.259       .  A
O215       Zn835   1.885       .  S
O215        C224   1.260       .  A
O216        C225   1.297       .  A
O217       Zn834   1.999       .  S
O217        C224   1.276       .  A
O218        C225   1.257       .  A
O219        C226   1.264       .  A
O220        C226   1.268       .  A
C221        C312   1.483       .  S
C224        C244   1.424       .  S
C225        C302   1.434       .  S
Zn227       O231   1.929       .  S
Zn227       O236   2.062       .  S
Zn227       O243   2.065       .  S
Zn227       O546   2.003       .  S
Zn228       O231   1.859       .  S
Zn228       O233   1.917       .  S
Zn228       O239   2.003       .  S
Zn228       O549   1.972       .  S
Zn229       O231   1.879       .  S
Zn229       O234   1.952       .  S
Zn229       O237   2.040       .  S
Zn229       O240   1.990       .  S
Zn230       O231   1.822       .  S
Zn230       O238   2.013       .  S
Zn230       O241   1.886       .  S
Zn230       O242   2.010       .  S
O232       Zn541   1.951       .  S
O232        C244   1.256   1_565  A
O233        C245   1.260       .  A
O234        C246   1.275       .  A
O235       Zn542   1.962   1_545  S
O235        C244   1.262       .  A
O236        C246   1.292       .  A
O237        C245   1.269       .  A
O238        C247   1.275       .  A
O239        C248   1.274       .  A
O240        C247   1.277       .  A
O241        C248   1.266       .  A
O242        C249   1.274       .  A
O243        C249   1.285       .  A
C246        C295   1.455       .  S
C247        N308   1.421       .  S
N250        C254   1.378       .  A
N250        C251   1.392   1_554  A
C251        C292   1.540       .  S
C251        C252   1.392   1_556  A
C252        C253   1.353       .  A
C252        H255   1.083   1_554  S
C253        C254   1.368       .  A
C253        H256   1.083       .  S
N257        C261   1.362       .  A
N257        C258   1.376   1_554  A
C258        C291   1.506       .  S
C258        C259   1.392       .  A
C259        C260   1.355   1_556  A
C259        H262   1.083       .  S
C260        C261   1.374       .  A
C260        H263   1.083       .  S
N264        C268   1.368       .  A
N264        C265   1.386   1_554  A
C265        C289   1.513       .  S
C265        C266   1.388   1_556  A
C266        C267   1.350       .  A
C266        H269   1.083   1_544  S
C267        C268   1.375       .  A
C267        H270   1.083   1_545  S
Zn271       O275   1.967       .  S
Zn271       O276   2.105       .  S
Zn271       O280   2.099       .  S
Zn271       O287   2.030       .  S
Zn272       O275   1.984       .  S
Zn272       O277   2.058       .  S
Zn272       O279   2.064       .  S
Zn272       O283   2.186       .  S
Zn273       O275   1.976       .  S
Zn273       O278   2.044       .  S
Zn273       O281   2.088       .  S
Zn273       O284   2.010       .  S
Zn274       O275   1.996       .  S
Zn274       O282   2.109       .  S
Zn274       O285   2.041       .  S
Zn274       O286   2.055       .  S
O276        C288   1.284       .  A
O277        C289   1.288       .  A
O278        C290   1.278       .  A
O279        C288   1.284       .  A
O280        C290   1.284       .  A
O281        C289   1.278       .  A
O282        C291   1.281       .  A
O283        C292   1.287       .  A
O284        C291   1.279       .  A
O285        C292   1.282       .  A
O286        C293   1.276       .  A
O287        C293   1.278       .  A
C288        N294   1.460   1_545  S
C290        N301   1.454       .  S
C293        C309   1.477       .  S
N294        C612   1.347       .  A
N294        C609   1.365       .  A
C295        N608   1.350       .  A
C295        C296   1.381       .  A
C296        C297   1.358       .  A
C296        H299   1.083       .  S
C297        C298   1.382       .  A
C297        H300   1.082       .  S
C298        N608   1.358       .  A
N301        C933   1.341       .  A
N301        C930   1.356       .  A
C302        N929   1.355   1_455  A
C302        C303   1.364       .  A
C303        C304   1.356       .  A
C303        H306   1.082       .  S
C304        C305   1.389       .  A
C304        H307   1.075       .  S
C305        N929   1.351   1_455  A
N308        C312   1.350       .  A
N308        C309   1.364       .  A
C309        C310   1.380       .  A
C310        C311   1.366       .  A
C310        H313   1.083       .  S
C311        C312   1.381       .  A
C311        H314   1.073       .  S
Zn315       O319   1.969       .  S
Zn315       O320   2.111       .  S
Zn315       O324   2.068       .  S
Zn315       O331   2.094       .  S
Zn316       O319   2.022       .  S
Zn316       O321   2.102       .  S
Zn316       O323   2.159       .  S
Zn316       O327   2.060       .  S
Zn317       O319   1.984       .  S
Zn317       O322   2.149       .  S
Zn317       O325   2.139       .  S
Zn317       O328   2.027       .  S
Zn318       O319   2.061       .  S
Zn318       O326   2.124       .  S
Zn318       O329   2.045       .  S
Zn318       O330   2.064       .  S
O320        C332   1.290       .  A
O321        C333   1.285       .  A
O322        C334   1.286       .  A
O323        C332   1.286       .  A
O324        C334   1.286       .  A
O325        C333   1.294       .  A
O326        C335   1.276       .  A
O327        C336   1.286       .  A
O328        C335   1.278       .  A
O329        C336   1.281       .  A
O330        C337   1.277       .  A
O331        C337   1.284       .  A
C332        C367   1.540       .  S
C333        N345   1.472       .  S
C334        C360   1.525       .  S
C335        C339   1.513       .  S
C336        N352   1.456       .  S
C337        C466   1.500       .  S
N338        C436   1.449       .  S
N338        C342   1.365       .  A
N338        C339   1.388       .  A
C339        C340   1.388       .  A
C340        C341   1.353       .  A
C340        H343   1.083       .  S
C341        C342   1.367       .  A
C341        H344   1.070       .  S
C342        C416   1.478       .  S
C346        C441   1.500       .  S
C346        C347   1.384       .  A
C347        C348   1.362       .  A
C347        H350   1.083       .  S
C348        C349   1.377       .  A
C348        H351   1.083       .  S
C349        C394   1.453       .  S
N352        C984   1.349   1_455  A
N352        C981   1.348   1_455  A
C353        C414   1.460       .  S
C353        N980   1.345       .  A
C353        C354   1.385       .  A
C354        C355   1.364       .  A
C354        H357   1.083       .  S
C355        C356   1.395       .  A
C355        H358   1.083       .  S
C356        C395   1.480       .  S
C356        N980   1.347       .  A
N359        C461   1.481       .  S
N359        C363   1.374       .  A
N359        C360   1.395       .  A
C360        C361   1.378       .  A
C361        C362   1.347       .  A
C361        H364   1.075       .  S
C362        C363   1.373       .  A
C362        H365   1.084       .  S
C363        C563   1.464       .  S
N366        C459   1.487       .  S
N366        C370   1.361       .  A
N366        C367   1.397       .  A
C367        C368   1.390       .  A
C368        C369   1.362       .  A
C368        H371   1.084       .  S
C369        C370   1.371       .  A
C369        H372   1.083       .  S
C370        C517   1.468       .  S
Zn373       O377   1.860       .  S
Zn373       O378   2.083       .  S
Zn373      O1010   1.983       .  S
Zn373       O389   2.119       .  S
Zn374       O377   1.799       .  S
Zn374       O381   1.983       .  S
Zn374       O385   2.066       .  S
Zn375       O377   1.922       .  S
Zn375      O1008   1.970       .  S
Zn375       O386   1.991       .  S
Zn376       O377   1.799       .  S
Zn376       O384   1.982       .  S
Zn376       O387   1.896       .  S
Zn376       O388   1.906       .  S
O378        C390   1.289       .  A
O379        C391   1.273       .  A
O380      Zn1003   1.970   1_455  S
O380        C392   1.265       .  A
O381        C390   1.275       .  A
O382      Zn1001   1.962   1_455  S
O382        C392   1.259       .  A
O383        C391   1.268   1_545  A
O384        C393   1.260       .  A
O385        C394   1.282       .  A
O386        C393   1.265       .  A
O387        C394   1.267       .  A
O388        C395   1.271       .  A
O389        C395   1.296       .  A
C390        C582   1.477       .  S
C391        C418   1.428       .  S
C392        C437   1.423       .  S
C393        C462   1.432       .  S
Zn396       O400   1.889       .  S
Zn396      O1029   1.959       .  S
Zn396       O405   1.963       .  S
Zn396       O412   2.000       .  S
Zn397       O400   1.854       .  S
Zn397       O402   2.019       .  S
Zn397      O1032   1.991       .  S
Zn397       O408   1.996       .  S
Zn398       O400   1.875       .  S
Zn398       O403   2.048       .  S
Zn398       O406   1.961       .  S
Zn398       O409   1.969       .  S
Zn399       O400   1.841       .  S
Zn399       O407   2.032       .  S
Zn399       O410   1.987       .  S
Zn399       O411   1.902       .  S
O401      Zn1024   1.948   1_455  S
O401        C413   1.255       .  A
O402        C414   1.285       .  A
O403        C415   1.270       .  A
O404      Zn1025   2.002   1_455  S
O404        C413   1.263       .  A
O405        C415   1.262       .  A
O406        C414   1.280       .  A
O407        C416   1.275       .  A
O408        C417   1.282       .  A
O409        C416   1.274       .  A
O410        C417   1.266       .  A
O411        C418   1.268       .  A
O412        C418   1.275       .  A
C413        C439   1.437       .  S
C415        C460   1.455       .  S
C417        C575   1.442       .  S
Zn419       O423   1.835       .  S
Zn419       O424   2.101       .  S
Zn419       O428   2.098       .  S
Zn419       O435   2.123       .  S
Zn420       O423   1.925       .  S
Zn420       O425   1.943       .  S
Zn420       O427   1.979       .  S
Zn420       O431   2.019       .  S
Zn421       O423   1.952       .  S
Zn421       O426   2.000       .  S
Zn421       O429   1.990       .  S
Zn422       O423   1.917       .  S
Zn422       O433   1.942       .  S
Zn422       O434   1.980       .  S
O424        C436   1.294       .  A
O425        C437   1.261       .  A
O426        C438   1.265       .  A
O427        C436   1.265       .  A
O428        C438   1.288       .  A
O429        C437   1.274       .  A
O430        C439   1.266       .  A
O431        C440   1.272       .  A
O432        C439   1.270       .  A
O433        C440   1.267       .  A
O434        C441   1.262       .  A
O435        C441   1.290       .  A
C438        C568   1.487       .  S
C440        C463   1.449       .  S
Zn442       O446   1.917       .  S
Zn442       O447   2.323   1_655  S
Zn442      O1079   2.312       .  S
Zn443       O446   1.910   1_455  S
Zn443      O1076   1.972   1_455  S
Zn443       O450   1.963       .  S
Zn444      O1074   1.978       .  S
Zn444       O449   1.936       .  S
Zn444       O452   2.029       .  S
Zn445      O1081   1.948       .  S
Zn445       O456   2.014   1_655  S
Zn445       O457   1.928   1_655  S
O446      Zn1072   1.938       .  S
O447        C459   1.319       .  A
O448      Zn1071   1.940       .  S
O448        C460   1.265       .  A
O449        C461   1.267       .  A
O450        C459   1.261       .  A
O451      Zn1070   2.338       .  S
O451        C461   1.323       .  A
O452        C460   1.269       .  A
O453      Zn1073   1.950       .  S
O453        C462   1.259       .  A
O454        C463   1.266       .  A
O455        C462   1.262       .  A
O456        C463   1.269       .  A
O457        C464   1.259       .  A
O458        C464   1.308       .  A
C464        N465   1.469       .  S
N465        C469   1.353       .  A
N465        C466   1.375       .  A
C466        C467   1.382       .  A
C467        C468   1.365       .  A
C467        H470   1.080       .  S
C468        C469   1.375       .  A
C468        H471   1.083       .  S
C469        C536   1.461       .  S
Zn472       O477   2.024       .  S
Zn472       O481   2.194       .  S
Zn472      O1116   2.172   1_455  S
Zn473       O476   1.867       .  S
Zn473       O478   1.957   1_455  S
Zn473      O1112   1.940   1_455  S
Zn474       O476   1.932       .  S
Zn474       O482   2.054       .  S
Zn474      O1113   2.141   1_556  S
Zn475      O1104   1.931   1_565  S
Zn475       O483   2.107   1_556  S
Zn475       O486   2.027       .  S
O476      Zn1103   1.933   1_455  S
O477        C489   1.274       .  A
O478        C490   1.261   1_655  A
O479        C491   1.286       .  A
O480        C489   1.262       .  A
O481        C491   1.304   1_556  A
O482        C490   1.276       .  A
O483        C492   1.293       .  A
O484      Zn1101   1.984   1_565  S
O484        C493   1.264       .  A
O485      Zn1102   2.156       .  S
O485        C492   1.296   1_556  A
O486        C493   1.266       .  A
O487        C494   1.303       .  A
O488      Zn1100   2.174   1_554  S
O488        C494   1.299       .  A
C489        C540   1.449       .  S
C490        C513   1.465       .  S
C491        N564   1.475       .  S
C492        N571   1.470       .  S
C493        C559   1.450       .  S
C494        N578   1.491       .  S
Zn495       O499   1.804       .  S
Zn495       O500   1.993       .  S
Zn495       O504   2.059       .  S
Zn495       O511   2.076       .  S
Zn496       O499   1.893       .  S
Zn496       O501   2.015       .  S
Zn496       O503   1.911       .  S
Zn496      O1135   1.925   1_455  S
Zn497       O499   1.849   1_545  S
Zn497       O502   1.909       .  S
Zn497       O505   1.999   1_545  S
Zn498       O499   1.906       .  S
Zn498      O1137   2.014       .  S
Zn498       O510   1.961       .  S
O500        C512   1.276       .  A
O501        C513   1.278       .  A
O502        C514   1.259   1_545  A
O503        C512   1.252       .  A
O504        C514   1.287       .  A
O505        C513   1.272       .  A
O506        C515   1.264       .  A
O507      Zn1124   1.943       .  S
O507        C516   1.264       .  A
O508        C515   1.271       .  A
O509      Zn1126   1.976       .  S
O509        C516   1.274       .  A
O510        C517   1.267       .  A
O511        C517   1.290       .  A
C512        C619   1.450       .  S
C514        C612   1.448       .  S
C515        C537   1.399       .  S
C516        C562   1.412       .  S
Zn518       O522   1.863       .  S
Zn518       O523   1.960       .  S
Zn518       O527   1.924       .  S
Zn518       O534   1.980       .  S
Zn519       O522   1.874       .  S
Zn519       O524   2.044       .  S
Zn519       O526   2.073       .  S
Zn519       O530   2.086       .  S
Zn520       O522   1.902       .  S
Zn520       O525   1.936       .  S
Zn520       O528   1.925       .  S
Zn520      O1159   1.968   1_455  S
Zn521       O522   1.844       .  S
Zn521      O1157   1.963   1_455  S
Zn521       O532   1.843       .  S
Zn521       O533   1.990       .  S
O523        C535   1.257       .  A
O524        C536   1.283       .  A
O525        C537   1.271       .  A
O526        C535   1.269       .  A
O527        C537   1.257       .  A
O528        C536   1.259       .  A
O529      Zn1149   1.955       .  S
O529        C538   1.270       .  A
O530        C539   1.294       .  A
O531      Zn1148   1.977       .  S
O531        C538   1.272       .  A
O532        C539   1.255       .  A
O533        C540   1.266       .  A
O534        C540   1.269       .  A
C535        C626   1.473       .  S
C538        C558   1.437       .  S
C539        C616   1.428       .  S
Zn541       O545   1.888       .  S
Zn541       O550   2.040       .  S
Zn541       O557   2.033       .  S
Zn542       O545   1.899       .  S
Zn542       O547   1.989       .  S
Zn542       O553   1.971       .  S
Zn543       O545   1.838       .  S
Zn543       O548   1.994       .  S
Zn543       O551   2.019       .  S
Zn543       O554   1.979       .  S
Zn544       O545   1.803       .  S
Zn544       O552   2.010       .  S
Zn544       O555   1.916       .  S
Zn544       O556   1.998       .  S
O546        C558   1.258       .  A
O547        C559   1.267       .  A
O548        C560   1.280       .  A
O549        C558   1.250       .  A
O550        C560   1.289       .  A
O551        C559   1.267       .  A
O552        C561   1.281       .  A
O553        C562   1.269       .  A
O554        C561   1.276       .  A
O555        C562   1.268       .  A
O556        C563   1.269       .  A
O557        C563   1.285       .  A
C560        C609   1.465       .  S
C561        N622   1.420       .  S
N564        C568   1.377       .  A
N564        C565   1.388   1_554  A
C565        C606   1.529       .  S
C565        C566   1.388   1_556  A
C566        C567   1.356       .  A
C566        H569   1.082   1_554  S
C567        C568   1.372       .  A
C567        H570   1.083       .  S
N571        C575   1.368       .  A
N571        C572   1.375   1_554  A
C572        C605   1.473       .  S
C572        C573   1.384   1_556  A
C573        C574   1.347       .  A
C573        H576   1.083   1_554  S
C574        C575   1.370       .  A
C574        H577   1.083       .  S
N578        C582   1.369       .  A
N578        C579   1.398   1_554  A
C579        C603   1.547       .  S
C579        C580   1.390       .  A
C580        C581   1.354   1_556  A
C580        H583   1.083       .  S
C581        C582   1.375       .  A
C581        H584   1.083       .  S
Zn585       O589   1.980       .  S
Zn585       O590   2.108       .  S
Zn585       O594   2.127       .  S
Zn585       O601   2.015       .  S
Zn586       O589   1.971       .  S
Zn586       O591   2.099       .  S
Zn586       O593   2.076       .  S
Zn586       O597   2.184       .  S
Zn587       O589   2.002       .  S
Zn587       O592   2.056       .  S
Zn587       O595   2.163       .  S
Zn587       O598   2.051       .  S
Zn588       O589   1.975       .  S
Zn588       O596   2.047       .  S
Zn588       O599   2.046       .  S
Zn588       O600   2.036       .  S
O590        C602   1.289       .  A
O591        C603   1.293       .  A
O592        C604   1.283       .  A
O593        C602   1.287       .  A
O594        C604   1.287       .  A
O595        C603   1.287       .  A
O596        C605   1.276       .  A
O597        C606   1.289       .  A
O598        C605   1.284       .  A
O599        C606   1.279       .  A
O600        C607   1.274       .  A
O601        C607   1.272       .  A
C602        N608   1.461       .  S
C604        N615   1.464       .  S
C607        C623   1.479       .  S
C609        C610   1.382       .  A
C610        C611   1.353       .  A
C610        H613   1.083       .  S
C611        C612   1.373       .  A
C611        H614   1.076       .  S
N615       C1247   1.357       .  A
N615       C1244   1.360       .  A
C616       N1243   1.353       .  A
C616        C617   1.372       .  A
C617        C618   1.360       .  A
C617        H620   1.083       .  S
C618        C619   1.388       .  A
C618        H621   1.080       .  S
C619       N1243   1.345       .  A
N622        C626   1.348       .  A
N622        C623   1.354       .  A
C623        C624   1.380       .  A
C624        C625   1.375       .  A
C624        H627   1.082       .  S
C625        C626   1.385       .  A
C625        H628   1.079       .  S
Zn629       O633   1.985       .  S
Zn629       O634   2.123       .  S
Zn629       O638   2.049       .  S
Zn629       O645   2.122       .  S
Zn630       O633   1.999       .  S
Zn630       O635   2.072       .  S
Zn630       O637   2.114       .  S
Zn630       O641   2.019       .  S
Zn631       O633   1.983       .  S
Zn631       O636   2.144       .  S
Zn631       O639   2.154       .  S
Zn631       O642   2.039       .  S
Zn632       O633   2.045       .  S
Zn632       O640   2.140       .  S
Zn632       O643   2.051       .  S
Zn632       O644   2.088       .  S
O634        C646   1.289       .  A
O635        C647   1.279       .  A
O636        C648   1.288       .  A
O637        C646   1.282       .  A
O638        C648   1.283       .  A
O639        C647   1.294       .  A
O640        C649   1.279       .  A
O641        C650   1.283       .  A
O642        C649   1.280       .  A
O643        C650   1.283       .  A
O644        C651   1.281       .  A
O645        C651   1.287       .  A
C646        C681   1.523       .  S
C647        N659   1.470       .  S
C648        C674   1.514       .  S
C649        C653   1.519       .  S
C650        N666   1.448       .  S
C651        C780   1.514       .  S
N652        C750   1.449       .  S
N652        C656   1.363       .  A
N652        C653   1.390       .  A
C653        C654   1.388       .  A
C654        C655   1.356       .  A
C654        H657   1.083       .  S
C655        C656   1.367       .  A
C655        H658   1.065       .  S
C656        C730   1.478       .  S
N659        C977   1.359       .  A
N659        C974   1.371       .  A
C660        C755   1.501   1_565  S
C660        N973   1.372       .  A
C660        C661   1.384       .  A
C661        C662   1.363       .  A
C661        H664   1.083       .  S
C662        C663   1.378       .  A
C662        H665   1.083       .  S
C663        C708   1.451       .  S
C663        N973   1.361       .  A
C667        C728   1.455       .  S
C667        C668   1.385       .  A
C668        C669   1.367       .  A
C668        H671   1.083       .  S
C669        C670   1.396       .  A
C669        H672   1.083       .  S
C670        C709   1.494       .  S
N673        C775   1.484       .  S
N673        C677   1.379       .  A
N673        C674   1.390       .  A
C674        C675   1.373       .  A
C675        C676   1.347       .  A
C675        H678   1.072       .  S
C676        C677   1.376       .  A
C676        H679   1.084       .  S
C677        C877   1.485       .  S
N680        C773   1.491       .  S
N680        C684   1.362       .  A
N680        C681   1.398       .  A
C681        C682   1.386       .  A
C682        C683   1.354       .  A
C682        H685   1.084       .  S
C683        C684   1.373       .  A
C683        H686   1.083       .  S
C684        C831   1.459       .  S
Zn687       O691   1.846       .  S
Zn687       O692   2.072       .  S
Zn687       O703   2.115       .  S
Zn688       O691   1.798       .  S
Zn688      O1007   1.972   1_545  S
Zn688       O695   1.978       .  S
Zn688       O699   2.066   1_545  S
Zn689       O691   1.915       .  S
Zn689      O1011   1.956       .  S
Zn689       O700   1.991       .  S
Zn690       O691   1.791       .  S
Zn690       O698   1.963       .  S
Zn690       O701   1.895       .  S
Zn690       O702   1.911       .  S
O692        C704   1.291       .  A
O693      Zn1002   1.934       .  S
O693        C705   1.272       .  A
O694        C706   1.266       .  A
O695        C704   1.274       .  A
O696        C706   1.258       .  A
O697      Zn1003   1.965       .  S
O697        C705   1.270       .  A
O698        C707   1.263       .  A
O699        C708   1.282       .  A
O700        C707   1.268       .  A
O701        C708   1.269   1_545  A
O702        C709   1.273       .  A
O703        C709   1.293       .  A
C704        C896   1.468       .  S
C705        C732   1.426       .  S
C706        C751   1.426       .  S
C707        C776   1.427       .  S
Zn710       O714   1.900       .  S
Zn710       O719   1.955       .  S
Zn710       O726   1.978       .  S
Zn711       O714   1.832       .  S
Zn711       O716   1.998       .  S
Zn711       O722   1.960       .  S
Zn712       O714   1.887       .  S
Zn712       O717   2.067       .  S
Zn712       O720   1.983       .  S
Zn712       O723   1.979       .  S
Zn713       O714   1.861       .  S
Zn713       O721   2.027       .  S
Zn713       O724   2.011       .  S
Zn713       O725   1.941       .  S
O715        C727   1.254       .  A
O716        C728   1.283       .  A
O717        C729   1.270       .  A
O718        C727   1.258       .  A
O719        C729   1.257       .  A
O720        C728   1.283       .  A
O721        C730   1.275       .  A
O722        C731   1.277       .  A
O723        C730   1.275       .  A
O724        C731   1.273       .  A
O725        C732   1.273       .  A
O726        C732   1.275       .  A
C727        C753   1.438       .  S
C729        C774   1.458       .  S
C731        C889   1.459       .  S
Zn733       O737   1.835       .  S
Zn733       O738   2.100       .  S
Zn733       O742   2.091       .  S
Zn733       O749   2.120       .  S
Zn734       O737   1.927       .  S
Zn734       O739   1.934       .  S
Zn734       O741   1.969       .  S
Zn734       O745   1.998       .  S
Zn735       O737   1.949       .  S
Zn735       O740   1.989       .  S
Zn735       O743   2.002       .  S
Zn735      O1060   1.987   1_545  S
Zn736       O737   1.920       .  S
Zn736      O1058   1.941   1_545  S
Zn736       O747   1.945       .  S
Zn736       O748   1.984       .  S
O738        C750   1.294       .  A
O739        C751   1.260       .  A
O740        C752   1.264       .  A
O741        C750   1.262       .  A
O742        C752   1.286       .  A
O743        C751   1.276       .  A
O744      Zn1050   1.946       .  S
O744        C753   1.266       .  A
O745        C754   1.270       .  A
O746      Zn1049   1.993       .  S
O746        C753   1.271       .  A
O747        C754   1.268       .  A
O748        C755   1.263       .  A
O749        C755   1.290       .  A
C752        C882   1.479       .  S
C754        C777   1.444       .  S
Zn756       O760   1.941       .  S
Zn756       O761   2.348       .  S
Zn756      O1086   2.293       .  S
Zn757       O760   1.895       .  S
Zn757       O764   1.947       .  S
Zn757      O1082   1.936       .  S
Zn758       O763   1.938       .  S
Zn758       O766   2.030       .  S
Zn758      O1083   1.974       .  S
Zn759      O1074   1.944   1_545  S
Zn759       O770   2.007       .  S
Zn759       O771   1.933       .  S
O760      Zn1073   1.949       .  S
O761        C773   1.320       .  A
O762        C774   1.267       .  A
O763        C775   1.271       .  A
O764        C773   1.260       .  A
O765        C775   1.319       .  A
O766        C774   1.269       .  A
O767        C776   1.262       .  A
O768      Zn1071   1.937   1_545  S
O768        C777   1.264       .  A
O769      Zn1072   1.964       .  S
O769        C776   1.264   1_565  A
O770        C777   1.270       .  A
O771        C778   1.260       .  A
O772      Zn1070   2.291   1_545  S
O772        C778   1.309       .  A
C778        N779   1.478       .  S
N779        C783   1.362       .  A
N779        C780   1.382       .  A
C780        C781   1.379       .  A
C781        C782   1.364       .  A
C781        H784   1.078       .  S
C782        C783   1.376       .  A
C782        H785   1.083       .  S
C783        C850   1.475       .  S
Zn786      O1104   1.941       .  S
Zn786       O791   2.067       .  S
Zn786       O795   2.191   1_556  S
Zn787       O790   1.860       .  S
Zn787       O792   1.948       .  S
Zn787      O1108   1.955       .  S
Zn788       O790   1.929       .  S
Zn788      O1107   2.088   1_556  S
Zn788       O796   2.023       .  S
Zn789       O797   2.127   1_556  S
Zn789       O800   2.074       .  S
Zn789      O1115   2.153   1_556  S
O790      Zn1100   1.926       .  S
O791        C803   1.278       .  A
O792        C804   1.260       .  A
O793      Zn1102   2.134   1_545  S
O793        C805   1.293   1_556  A
O794      Zn1101   1.968       .  S
O794        C803   1.259       .  A
O795        C805   1.306       .  A
O796        C804   1.270       .  A
O797        C806   1.296       .  A
O798        C807   1.260       .  A
O799        C806   1.292   1_456  A
O800        C807   1.268       .  A
O801      Zn1103   2.142   1_554  S
O801        C808   1.299   1_565  A
O802        C808   1.296       .  A
C803        C854   1.452       .  S
C804        C827   1.451       .  S
C805        N878   1.484       .  S
C806        N885   1.460       .  S
C807        C873   1.462       .  S
C808        N892   1.485       .  S
Zn809       O813   1.821       .  S
Zn809       O814   2.049       .  S
Zn809       O818   2.023       .  S
Zn809       O825   2.053       .  S
Zn810       O813   1.844       .  S
Zn810       O815   1.969       .  S
Zn810       O817   1.884       .  S
Zn811       O813   1.865       .  S
Zn811       O816   1.928       .  S
Zn811       O819   1.995       .  S
Zn811      O1136   1.924       .  S
Zn812       O813   1.902       .  S
Zn812      O1134   1.938       .  S
Zn812       O824   1.949       .  S
O814        C826   1.284       .  A
O815        C827   1.274       .  A
O816        C828   1.258       .  A
O817        C826   1.251       .  A
O818        C828   1.278       .  A
O819        C827   1.271       .  A
O820      Zn1126   2.000   1_545  S
O820        C829   1.262       .  A
O821        C830   1.253       .  A
O822      Zn1125   1.999       .  S
O822        C829   1.267       .  A
O823        C830   1.264       .  A
O824        C831   1.264       .  A
O825        C831   1.287       .  A
C826        C933   1.448       .  S
C828        C926   1.448       .  S
C829        C851   1.444       .  S
C830        C876   1.402       .  S
Zn832       O836   1.813       .  S
Zn832       O837   1.958       .  S
Zn832       O841   1.956       .  S
Zn832       O848   1.947       .  S
Zn833       O836   1.906       .  S
Zn833       O838   2.084       .  S
Zn833       O840   2.073       .  S
Zn833       O844   2.068       .  S
Zn834       O836   1.859       .  S
Zn834       O839   1.984       .  S
Zn834       O842   1.964       .  S
Zn835       O836   1.831       .  S
Zn835       O846   1.877       .  S
Zn835       O847   2.057       .  S
O837        C849   1.257       .  A
O838        C850   1.289       .  A
O839        C851   1.276       .  A
O840        C849   1.274       .  A
O841        C851   1.270       .  A
O842        C850   1.267       .  A
O843        C852   1.270       .  A
O844        C853   1.283       .  A
O845        C852   1.272       .  A
O846        C853   1.250       .  A
O847        C854   1.276       .  A
O848        C854   1.270       .  A
C849        C940   1.466       .  S
C852        C872   1.432       .  S
C853        C930   1.448       .  S
Zn855       O859   1.941       .  S
Zn855      O1174   1.995       .  S
Zn855       O864   2.066       .  S
Zn855       O871   2.092       .  S
Zn856       O859   1.846       .  S
Zn856       O861   1.900       .  S
Zn856      O1177   1.971       .  S
Zn856       O867   1.964       .  S
Zn857       O859   1.895       .  S
Zn857       O862   1.971       .  S
Zn857       O865   2.074       .  S
Zn857       O868   2.009       .  S
Zn858       O859   1.839       .  S
Zn858       O866   2.027       .  S
Zn858       O869   1.896       .  S
Zn858       O870   1.994       .  S
O860      Zn1169   1.992   1_545  S
O860        C872   1.258       .  A
O861        C873   1.257       .  A
O862        C874   1.278       .  A
O863      Zn1170   1.967   1_545  S
O863        C872   1.251       .  A
O864        C874   1.293       .  A
O865        C873   1.270       .  A
O866        C875   1.278       .  A
O867        C876   1.272       .  A
O868        C875   1.280       .  A
O869        C876   1.266       .  A
O870        C877   1.273       .  A
O871        C877   1.287       .  A
C874        C923   1.463       .  S
C875        N936   1.426       .  S
N878        C882   1.374       .  A
N878        C879   1.392   1_554  A
C879        C920   1.544       .  S
C879        C880   1.393   1_556  A
C880        C881   1.354       .  A
C880        H883   1.083   1_554  S
C881        C882   1.369       .  A
C881        H884   1.083       .  S
N885        C889   1.359       .  A
N885        C886   1.371   1_554  A
C886        C919   1.499       .  S
C886        C887   1.392   1_656  A
C887        C888   1.355       .  A
C887        H890   1.083   1_554  S
C888        C889   1.374   1_455  A
C888        H891   1.083       .  S
N892        C896   1.366       .  A
N892        C893   1.390   1_554  A
C893        C917   1.531       .  S
C893        C894   1.389   1_556  A
C894        C895   1.355       .  A
C894        H897   1.083   1_544  S
C895        C896   1.374       .  A
C895        H898   1.083   1_545  S
Zn899       O903   1.961       .  S
Zn899       O904   2.100       .  S
Zn899       O908   2.116       .  S
Zn899       O915   2.012       .  S
Zn900       O903   1.977       .  S
Zn900       O905   2.089       .  S
Zn900       O907   2.053       .  S
Zn900       O911   2.207       .  S
Zn901       O903   1.969       .  S
Zn901       O906   2.066       .  S
Zn901       O909   2.121       .  S
Zn901       O912   1.991       .  S
Zn902       O903   1.985       .  S
Zn902       O910   2.102       .  S
Zn902       O913   2.035       .  S
Zn902       O914   2.046       .  S
O904        C916   1.286       .  A
O905        C917   1.293       .  A
O906        C918   1.281       .  A
O907        C916   1.285       .  A
O908        C918   1.286       .  A
O909        C917   1.283       .  A
O910        C919   1.282       .  A
O911        C920   1.289       .  A
O912        C919   1.277       .  A
O913        C920   1.280       .  A
O914        C921   1.276       .  A
O915        C921   1.274       .  A
C916        N922   1.455   1_545  S
C918        N929   1.464       .  S
C921        C937   1.471       .  S
N922       C1240   1.349       .  A
N922       C1237   1.358       .  A
C923       N1236   1.357       .  A
C923        C924   1.382       .  A
C924        C925   1.356       .  A
C924        H927   1.083       .  S
C925        C926   1.380       .  A
C925        H928   1.079       .  S
C926       N1236   1.346       .  A
C930        C931   1.375       .  A
C931        C932   1.359       .  A
C931        H934   1.083       .  S
C932        C933   1.384       .  A
C932        H935   1.078       .  S
N936        C940   1.350       .  A
N936        C937   1.360       .  A
C937        C938   1.381       .  A
C938        C939   1.366       .  A
C938        H941   1.083       .  S
C939        C940   1.380       .  A
C939        H942   1.082       .  S
Zn943       O947   1.983       .  S
Zn943       O948   2.114       .  S
Zn943       O952   2.088       .  S
Zn943       O959   2.107       .  S
Zn944       O947   2.011       .  S
Zn944       O949   2.071       .  S
Zn944       O951   2.108       .  S
Zn944       O955   2.052       .  S
Zn945       O947   1.999       .  S
Zn945       O950   2.162       .  S
Zn945       O953   2.140       .  S
Zn945       O956   2.061       .  S
Zn946       O947   2.017       .  S
Zn946       O954   2.075       .  S
Zn946       O957   2.030       .  S
Zn946       O958   2.073       .  S
O948        C960   1.289       .  A
O949        C961   1.280       .  A
O950        C962   1.290       .  A
O951        C960   1.283       .  A
O952        C962   1.286       .  A
O953        C961   1.294       .  A
O954        C963   1.275       .  A
O955        C964   1.283       .  A
O956        C963   1.281       .  A
O957        C964   1.279       .  A
O958        C965   1.280       .  A
O959        C965   1.286       .  A
C960        C995   1.518       .  S
C961        N973   1.467       .  S
C962        C988   1.526       .  S
C963        C967   1.496       .  S
C964        N980   1.453       .  S
C965       C1094   1.506       .  S
N966       C1064   1.450       .  S
N966        C970   1.359       .  A
N966        C967   1.379       .  A
C967        C968   1.380       .  A
C968        C969   1.360       .  A
C968        H971   1.083       .  S
C969        C970   1.382       .  A
C969        H972   1.083       .  S
C970       C1044   1.466       .  S
C974       C1069   1.502       .  S
C974        C975   1.384       .  A
C975        C976   1.362       .  A
C975        H978   1.083       .  S
C976        C977   1.378       .  A
C976        H979   1.083       .  S
C977       C1022   1.448       .  S
C981       C1042   1.449       .  S
C981        C982   1.380       .  A
C982        C983   1.365       .  A
C982        H985   1.083       .  S
C983        C984   1.397       .  A
C983        H986   1.083       .  S
C984       C1023   1.492       .  S
N987       C1089   1.481       .  S
N987        C991   1.376       .  A
N987        C988   1.395       .  A
C988        C989   1.376       .  A
C989        C990   1.352       .  A
C989        H992   1.066       .  S
C990        C991   1.372       .  A
C990        H993   1.083       .  S
C991       C1191   1.477       .  S
N994       C1087   1.488       .  S
N994        C998   1.362       .  A
N994        C995   1.396       .  A
C995        C996   1.385       .  A
C996        C997   1.355       .  A
C996        H999   1.084       .  S
C997        C998   1.374       .  A
C997       H1000   1.083       .  S
C998       C1145   1.461       .  S
Zn1001     O1005   1.860       .  S
Zn1001     O1006   2.087       .  S
Zn1001     O1017   2.134       .  S
Zn1002     O1005   1.802       .  S
Zn1002     O1009   1.954       .  S
Zn1002     O1013   2.046       .  S
Zn1003     O1005   1.902       .  S
Zn1003     O1014   1.994       .  S
Zn1004     O1005   1.793       .  S
Zn1004     O1012   1.967       .  S
Zn1004     O1015   1.897       .  S
Zn1004     O1016   1.905       .  S
O1006      C1018   1.292       .  A
O1007      C1019   1.278       .  A
O1008      C1020   1.262       .  A
O1009      C1018   1.272       .  A
O1010      C1020   1.260       .  A
O1011      C1019   1.266   1_545  A
O1012      C1021   1.260       .  A
O1013      C1022   1.278       .  A
O1014      C1021   1.267       .  A
O1015      C1022   1.269       .  A
O1016      C1023   1.270       .  A
O1017      C1023   1.295       .  A
C1018      C1210   1.470       .  S
C1019      C1046   1.429       .  S
C1020      C1065   1.429       .  S
C1021      C1090   1.430       .  S
Zn1024     O1028   1.892       .  S
Zn1024     O1033   1.954       .  S
Zn1024     O1040   2.008       .  S
Zn1025     O1028   1.836       .  S
Zn1025     O1030   1.984       .  S
Zn1025     O1036   1.971       .  S
Zn1026     O1028   1.856       .  S
Zn1026     O1031   2.026       .  S
Zn1026     O1034   1.990       .  S
Zn1026     O1037   1.999       .  S
Zn1027     O1028   1.812       .  S
Zn1027     O1035   1.975       .  S
Zn1027     O1038   1.967       .  S
Zn1027     O1039   1.905       .  S
O1029      C1041   1.257       .  A
O1030      C1042   1.282       .  A
O1031      C1043   1.267       .  A
O1032      C1041   1.262       .  A
O1033      C1043   1.260       .  A
O1034      C1042   1.284       .  A
O1035      C1044   1.276       .  A
O1036      C1045   1.277       .  A
O1037      C1044   1.280       .  A
O1038      C1045   1.264       .  A
O1039      C1046   1.264       .  A
O1040      C1046   1.275       .  A
C1041      C1067   1.435       .  S
C1043      C1088   1.449       .  S
C1045      C1203   1.434       .  S
Zn1047     O1051   1.862       .  S
Zn1047     O1052   2.131       .  S
Zn1047     O1056   2.090       .  S
Zn1047     O1063   2.141       .  S
Zn1048     O1051   1.909       .  S
Zn1048     O1053   1.942       .  S
Zn1048     O1055   1.948       .  S
Zn1048     O1059   1.996       .  S
Zn1049     O1051   1.957       .  S
Zn1049     O1054   1.999       .  S
Zn1049     O1057   1.996       .  S
Zn1050     O1051   1.923       .  S
Zn1050     O1061   1.945       .  S
Zn1050     O1062   1.965       .  S
O1052      C1064   1.297       .  A
O1053      C1065   1.262       .  A
O1054      C1066   1.265       .  A
O1055      C1064   1.264       .  A
O1056      C1066   1.286       .  A
O1057      C1065   1.274       .  A
O1058      C1067   1.265       .  A
O1059      C1068   1.267       .  A
O1060      C1067   1.270       .  A
O1061      C1068   1.266       .  A
O1062      C1069   1.260       .  A
O1063      C1069   1.293       .  A
C1066      C1196   1.483       .  S
C1068      C1091   1.445       .  S
Zn1070     O1074   1.935       .  S
Zn1070     O1075   2.337       .  S
Zn1071     O1074   1.890       .  S
Zn1071     O1078   1.935       .  S
Zn1072     O1077   1.933       .  S
Zn1072     O1080   2.000       .  S
Zn1073     O1084   2.009       .  S
Zn1073     O1085   1.936       .  S
O1075      C1087   1.318       .  A
O1076      C1088   1.270       .  A
O1077      C1089   1.267       .  A
O1078      C1087   1.259       .  A
O1079      C1089   1.317       .  A
O1080      C1088   1.269       .  A
O1081      C1090   1.259       .  A
O1082      C1091   1.264       .  A
O1083      C1090   1.262       .  A
O1084      C1091   1.270       .  A
O1085      C1092   1.261       .  A
O1086      C1092   1.310       .  A
C1092      N1093   1.478       .  S
N1093      C1097   1.363       .  A
N1093      C1094   1.377       .  A
C1094      C1095   1.377       .  A
C1095      C1096   1.365       .  A
C1095      H1098   1.074       .  S
C1096      C1097   1.375       .  A
C1096      H1099   1.082       .  S
C1097      C1164   1.473       .  S
Zn1100     O1105   2.046       .  S
Zn1100     O1109   2.212   1_556  S
Zn1101     O1104   1.875       .  S
Zn1101     O1106   1.978       .  S
Zn1102     O1104   1.941   1_565  S
Zn1102     O1110   2.061       .  S
Zn1103     O1111   2.106   1_556  S
Zn1103     O1114   2.052       .  S
O1105      C1117   1.271       .  A
O1106      C1118   1.261       .  A
O1107      C1119   1.287       .  A
O1108      C1117   1.254       .  A
O1109      C1119   1.308       .  A
O1110      C1118   1.278   1_565  A
O1111      C1120   1.295       .  A
O1112      C1121   1.261       .  A
O1113      C1120   1.296   1_455  A
O1114      C1121   1.266       .  A
O1115      C1122   1.302       .  A
O1116      C1122   1.297   1_556  A
C1117      C1168   1.451       .  S
C1118      C1141   1.458       .  S
C1119      N1192   1.477       .  S
C1120      N1199   1.466       .  S
C1121      C1187   1.453       .  S
C1122      N1206   1.491       .  S
Zn1123     O1127   1.819       .  S
Zn1123     O1128   2.044       .  S
Zn1123     O1132   2.019       .  S
Zn1123     O1139   2.032       .  S
Zn1124     O1127   1.828       .  S
Zn1124     O1129   1.972       .  S
Zn1124     O1131   1.954       .  S
Zn1125     O1127   1.954   1_545  S
Zn1125     O1130   1.942       .  S
Zn1125     O1133   2.063       .  S
Zn1126     O1127   1.904       .  S
Zn1126     O1138   1.963       .  S
O1128      C1140   1.283       .  A
O1129      C1141   1.258   1_565  A
O1130      C1142   1.265   1_545  A
O1131      C1140   1.262       .  A
O1132      C1142   1.282       .  A
O1133      C1141   1.279       .  A
O1134      C1143   1.261       .  A
O1135      C1144   1.253       .  A
O1136      C1143   1.268       .  A
O1137      C1144   1.264   1_455  A
O1138      C1145   1.263       .  A
O1139      C1145   1.284       .  A
C1140      C1247   1.469       .  S
C1142      C1240   1.444       .  S
C1143      C1165   1.412       .  S
C1144      C1190   1.429       .  S
Zn1146     O1150   1.823       .  S
Zn1146     O1151   1.964       .  S
Zn1146     O1155   1.959       .  S
Zn1146     O1162   1.971       .  S
Zn1147     O1150   1.893       .  S
Zn1147     O1152   2.110       .  S
Zn1147     O1154   2.138       .  S
Zn1147     O1158   2.120       .  S
Zn1148     O1150   1.882       .  S
Zn1148     O1153   1.980       .  S
Zn1148     O1156   1.934       .  S
Zn1149     O1150   1.841       .  S
Zn1149     O1160   1.853       .  S
Zn1149     O1161   2.009       .  S
O1151      C1163   1.252       .  A
O1152      C1164   1.292       .  A
O1153      C1165   1.274       .  A
O1154      C1163   1.275       .  A
O1155      C1165   1.257       .  A
O1156      C1164   1.261       .  A
O1157      C1166   1.270       .  A
O1158      C1167   1.298       .  A
O1159      C1166   1.268       .  A
O1160      C1167   1.257       .  A
O1161      C1168   1.266       .  A
O1162      C1168   1.268       .  A
C1163      C1254   1.489       .  S
C1166      C1186   1.437       .  S
C1167      C1244   1.440       .  S
Zn1169     O1173   1.937       .  S
Zn1169     O1178   2.072       .  S
Zn1169     O1185   2.067       .  S
Zn1170     O1173   1.866       .  S
Zn1170     O1175   1.923       .  S
Zn1170     O1181   2.003       .  S
Zn1171     O1173   1.877       .  S
Zn1171     O1176   1.955       .  S
Zn1171     O1179   2.041       .  S
Zn1171     O1182   1.997       .  S
Zn1172     O1173   1.827       .  S
Zn1172     O1180   2.021       .  S
Zn1172     O1183   1.908       .  S
Zn1172     O1184   2.004       .  S
O1174      C1186   1.259       .  A
O1175      C1187   1.261       .  A
O1176      C1188   1.275       .  A
O1177      C1186   1.252       .  A
O1178      C1188   1.291       .  A
O1179      C1187   1.270       .  A
O1180      C1189   1.276       .  A
O1181      C1190   1.272       .  A
O1182      C1189   1.278       .  A
O1183      C1190   1.271       .  A
O1184      C1191   1.274       .  A
O1185      C1191   1.284       .  A
C1188      C1237   1.463       .  S
C1189      N1250   1.423       .  S
N1192      C1196   1.374       .  A
N1192      C1193   1.388   1_554  A
C1193      C1234   1.531       .  S
C1193      C1194   1.390   1_556  A
C1194      C1195   1.355       .  A
C1194      H1197   1.083   1_554  S
C1195      C1196   1.371       .  A
C1195      H1198   1.083       .  S
N1199      C1203   1.363       .  A
N1199      C1200   1.370   1_554  A
C1200      C1233   1.465       .  S
C1200      C1201   1.384   1_556  A
C1201      C1202   1.349       .  A
C1201      H1204   1.084       .  S
C1202      C1203   1.372       .  A
C1202      H1205   1.083       .  S
N1206      C1210   1.366       .  A
N1206      C1207   1.391   1_554  A
C1207      C1231   1.534       .  S
C1207      C1208   1.390       .  A
C1208      C1209   1.356   1_556  A
C1208      H1211   1.084       .  S
C1209      C1210   1.377       .  A
C1209      H1212   1.083       .  S
Zn1213     O1217   1.959       .  S
Zn1213     O1218   2.095       .  S
Zn1213     O1222   2.121       .  S
Zn1213     O1229   2.053       .  S
Zn1214     O1217   1.968       .  S
Zn1214     O1219   2.090       .  S
Zn1214     O1221   2.048       .  S
Zn1214     O1225   2.193       .  S
Zn1215     O1217   1.978       .  S
Zn1215     O1220   2.019       .  S
Zn1215     O1223   2.120       .  S
Zn1215     O1226   2.038       .  S
Zn1216     O1217   1.978       .  S
Zn1216     O1224   2.026       .  S
Zn1216     O1227   2.034       .  S
Zn1216     O1228   2.025       .  S
O1218      C1230   1.286       .  A
O1219      C1231   1.292       .  A
O1220      C1232   1.278       .  A
O1221      C1230   1.286       .  A
O1222      C1232   1.288       .  A
O1223      C1231   1.281       .  A
O1224      C1233   1.271       .  A
O1225      C1234   1.290       .  A
O1226      C1233   1.283       .  A
O1227      C1234   1.279       .  A
O1228      C1235   1.269       .  A
O1229      C1235   1.279       .  A
C1230      N1236   1.454       .  S
C1232      N1243   1.453   1_655  S
C1235      C1251   1.479       .  S
C1237      C1238   1.383       .  A
C1238      C1239   1.353       .  A
C1238      H1241   1.083       .  S
C1239      C1240   1.377       .  A
C1239      H1242   1.081       .  S
C1244      C1245   1.370       .  A
C1245      C1246   1.364       .  A
C1245      H1248   1.082       .  S
C1246      C1247   1.394       .  A
C1246      H1249   1.083       .  S
N1250      C1254   1.352       .  A
N1250      C1251   1.367       .  A
C1251      C1252   1.380       .  A
C1252      C1253   1.367       .  A
C1252      H1255   1.083       .  S
C1253      C1254   1.378       .  A
C1253      H1256   1.073       .  S
