geometry optimzed in LAMMPS
_audit_creation_date              2020-12-01 
_audit_creation_method            'lammps2cif' 
_symmetry_space_group_name_H-M    'P1' 
_symmetry_Int_Tables_number       1 
_symmetry_cell_setting            triclinic 
loop_ 
_symmetry_equiv_pos_as_xyz 
  x,y,z 
_cell_length_a                    57.05149536 
_cell_length_b                    58.43426290464988 
_cell_length_c                    57.45686547842672 
_cell_angle_alpha                 89.18624787326655 
_cell_angle_beta                  90.10240340948589 
_cell_angle_gamma                 89.84184575488412 
loop_ 
_atom_site_label 
_atom_site_type_symbol 
_atom_site_fract_x 
_atom_site_fract_y 
_atom_site_fract_z 
_atom_site_charge 
N1          N  0.84169605  0.82394792  0.00428541    -0.01900
C2          C  0.84331913  0.81192638  0.02460429     0.00700
C3          C  0.84279041  0.78868967  0.02058964    -0.22200
C4          C  0.84057032  0.78623627  0.99700896    -0.22400
C5          C  0.83985199  0.80803540  0.98739174     0.00600
H6          H  0.84176198  0.77509987  0.03354278     0.14400
H7          H  0.83725433  0.77036823  0.98809833     0.14400
N8          N  0.76543694  0.18197906  0.01066294    -0.01900
C9          C  0.74980316  0.18068392  0.02860088     0.00700
C10         C  0.72770264  0.17534345  0.02060948    -0.22200
C11         C  0.72922224  0.17430508  0.99695139    -0.22400
C12         C  0.75214312  0.17932315  0.99106187     0.00600
H13         H  0.71163331  0.17514027  0.03059698     0.14400
H14         H  0.71441682  0.17361623  0.98516877     0.14400
N15         N  0.20115232  0.89535323  0.99848020    -0.01900
C16         C  0.21548775  0.89486242  0.01745030     0.00700
C17         C  0.23866192  0.89653671  0.01090884    -0.22200
C18         C  0.23883499  0.89748471  0.98711487    -0.22400
C19         C  0.21579378  0.89599591  0.97969361     0.00600
H20         H  0.25388231  0.89489856  0.02208766     0.14400
H21         H  0.25431144  0.89580857  0.97638212     0.14400
N22         N  0.81686447  0.03411257  0.80389260    -0.01900
C23         C  0.81332389  0.05499980  0.79368344     0.00700
C24         C  0.80806819  0.05298618  0.77036627    -0.22200
C25         C  0.80847513  0.03016271  0.76570143    -0.22400
C26         C  0.81399019  0.01892368  0.78632484     0.00600
H27         H  0.80352086  0.06667473  0.75828072     0.14400
H28         H  0.80403199  0.02243970  0.74926237     0.14400
N29         N  0.98475047  0.17673696  0.79463864    -0.01900
C30         C  0.96363728  0.17451607  0.78356465     0.00700
C31         C  0.96670965  0.16575021  0.76158703    -0.22200
C32         C  0.99021781  0.16412807  0.75799066    -0.22400
C33         C  0.00105857  0.17148208  0.77805795     0.00600
H34         H  0.95348079  0.16450558  0.74812253     0.14400
H35         H  0.99839442  0.16090150  0.74137038     0.14400
N36         N  0.97561886  0.89091237  0.79417742    -0.01900
C37         C  0.95509617  0.89028937  0.78207201     0.00700
C38         C  0.95923088  0.88908557  0.75844958    -0.22200
C39         C  0.98295101  0.88844205  0.75574068    -0.22400
C40         C  0.99271874  0.88899370  0.77775254     0.00600
H41         H  0.94645260  0.88636836  0.74482925     0.14400
H42         H  0.99198893  0.88465826  0.73968454     0.14400
N43         N  0.19301507  0.02870254  0.85921900    -0.01900
C44         C  0.20684710  0.04735811  0.85642273     0.00700
C45         C  0.22996848  0.04091378  0.85381545    -0.22200
C46         C  0.23049826  0.01748067  0.85497249    -0.22400
C47         C  0.20762092  0.01030857  0.85818994     0.00600
H48         H  0.24447071  0.05193993  0.84909505     0.14400
H49         H  0.24557742  0.00683532  0.85136397     0.14400
N50         N  0.98409925  0.81747746  0.14493032    -0.01900
C51         C  0.96402592  0.80492672  0.14371211     0.00700
C52         C  0.96916684  0.78243161  0.13851863    -0.22200
C53         C  0.99304357  0.78062672  0.13750871    -0.22400
C54         C  0.00183553  0.80211615  0.14193090     0.00600
H55         H  0.95706162  0.76819311  0.13882049     0.14400
H56         H  0.00291857  0.76483017  0.13646629     0.14400
N57         N  0.77585281  0.03385399  0.16451795    -0.01900
C58         C  0.76883199  0.05542661  0.16991740     0.00700
C59         C  0.74557250  0.05568370  0.17640023    -0.22200
C60         C  0.73774949  0.03366743  0.17504098    -0.22400
C61         C  0.75649524  0.02052325  0.16779118     0.00600
H62         H  0.73574147  0.07020410  0.18269883     0.14400
H63         H  0.72065248  0.02762305  0.18041919     0.14400
N64         N  0.98692768  0.17436274  0.22301816    -0.01900
C65         C  0.96700078  0.17402261  0.23627014     0.00700
C66         C  0.97254314  0.17036721  0.25945422    -0.22200
C67         C  0.99636543  0.16958674  0.26103445    -0.22400
C68         C  0.00485196  0.17252623  0.23872594     0.00600
H69         H  0.96067599  0.17167442  0.27406814     0.14400
H70         H  0.00640878  0.16967633  0.27703844     0.14400
Zr71       Zr  0.26778300  0.29699062  0.28207265     2.17500
O72         O  0.29855912  0.28209294  0.30760786    -0.49800
O73         O  0.27203559  0.33756310  0.28934254    -0.73000
O74         O  0.30461420  0.30985256  0.26700118    -0.79800
O75         O  0.21999779  0.29098787  0.32760225    -0.81500
O76         O  0.30420818  0.30698683  0.22745132    -0.77100
O77         O  0.25811517  0.30117914  0.32234168    -0.88800
O78         O  0.24451910  0.35562947  0.26730539    -0.74700
O79         O  0.26098931  0.31442101  0.24513894    -0.84200
O80         O  0.22824434  0.30986899  0.28285719    -0.83900
O81         O  0.27656852  0.26824400  0.25395289    -0.70700
O82         O  0.24506429  0.26345529  0.29017010    -0.82800
Zr83       Zr  0.20599807  0.26521985  0.22544556     2.26400
Zr84       Zr  0.26836974  0.28589146  0.21667560     2.06300
Zr85       Zr  0.20506314  0.27648705  0.29020551     2.10000
Zr86       Zr  0.22170325  0.32732345  0.24601642     1.78800
O87         O  0.19898525  0.24609080  0.31899394    -0.91600
O88         O  0.23625672  0.35457057  0.21701819    -0.39400
O89         O  0.19734187  0.29439142  0.25306212    -0.76000
O90         O  0.22841004  0.29888969  0.21699688    -0.94700
O91         O  0.24547554  0.25236930  0.22411217    -0.88000
O92         O  0.21312373  0.24773031  0.26229833    -0.90900
C93         C  0.26189829  0.35577209  0.28162935     1.02900
C94         C  0.23976100  0.29895223  0.33492466     1.15800
C95         C  0.31340884  0.31342021  0.24683986     1.06600
O96         O  0.27452618  0.31477984  0.18635848    -0.93000
O97         O  0.25329865  0.27185485  0.17900183    -0.88800
O98         O  0.21650985  0.25847680  0.18596661    -0.81900
C99         C  0.23405704  0.26208523  0.17268022     1.13200
O100        O  0.28468098  0.22380736  0.28687763    -0.95000
Zr101      Zr  0.25260969  0.23519027  0.26115240     1.88900
O102        O  0.20159015  0.22460263  0.21978661    -0.71600
O103        O  0.29980929  0.26123940  0.20297338    -0.50900
O104        O  0.28171731  0.21382850  0.23931947    -0.95600
O105        O  0.24091503  0.20686910  0.29042640    -0.52800
O106        O  0.22978097  0.20644477  0.24084728    -0.72200
C107        C  0.21190830  0.20642245  0.22719862     1.00200
O108        O  0.17534072  0.27855747  0.19885645    -0.61000
O109        O  0.17411721  0.30047745  0.30592885    -0.55800
O110        O  0.16829891  0.25370588  0.23928442    -0.92500
O111        O  0.16759382  0.25826444  0.27859883    -0.90900
O112        O  0.19232745  0.34901167  0.26715084    -0.91300
O113        O  0.19045390  0.33966598  0.21973826    -0.90000
C114        C  0.15864572  0.25140878  0.25921464     1.19000
H115        H  0.22575325  0.32114427  0.29474283     0.35000
H116        H  0.22418747  0.30501311  0.20186489     0.45800
H117        H  0.20309709  0.23471850  0.26500862     0.39300
H118        H  0.29295934  0.26406478  0.25497069     0.35800
H119        H  0.22976218  0.36952844  0.22174940     0.27600
H120        H  0.30479465  0.26829142  0.18802142     0.33500
H121        H  0.29499048  0.22453197  0.23722188     0.39500
H122        H  0.19243862  0.36441475  0.25974282     0.33900
H123        H  0.16596320  0.30688562  0.29206735     0.32800
H124        H  0.19304237  0.23298077  0.31000756     0.34500
H125        H  0.24706167  0.19214840  0.28463062     0.33400
H126        H  0.17897535  0.32699779  0.22022667     0.37400
H127        H  0.16437823  0.28739688  0.20861324     0.30200
H128        H  0.30727954  0.29576567  0.31272914     0.34400
H129        H  0.28398493  0.23475739  0.29985205     0.37300
H130        H  0.16277195  0.28961469  0.31294560     0.29900
H131        H  0.18295922  0.29026484  0.18882838     0.42700
H132        H  0.28959609  0.31049806  0.17906977     0.32800
H133        H  0.25327835  0.35574739  0.22018434     0.40400
H134        H  0.22369416  0.20555333  0.28883171     0.32300
H135        H  0.31308681  0.26389473  0.21370755     0.32300
H136        H  0.30954383  0.27400220  0.29722027     0.32600
N137        N  0.15067197  0.03187763  0.20320160    -0.01900
C138        C  0.14920024  0.05122062  0.21592791     0.00700
C139        C  0.15316617  0.04639690  0.23919818    -0.22200
C140        C  0.15745931  0.02337565  0.24095666    -0.22400
C141        C  0.15593135  0.01483953  0.21867870     0.00600
H142        H  0.15540828  0.05867945  0.25295048     0.14400
H143        H  0.16336713  0.01429144  0.25644261     0.14400
Zr144      Zr  0.26597510  0.75861397  0.27037342     2.17500
O145        O  0.29580121  0.73248444  0.25596864    -0.49800
O146        O  0.26730363  0.75096224  0.31186055    -0.73000
O147        O  0.30327429  0.77158689  0.28400813    -0.79800
O148        O  0.21743653  0.71561138  0.26043618    -0.81500
O149        O  0.30644304  0.81007419  0.27865381    -0.77100
O150        O  0.25391207  0.71954884  0.27618235    -0.88800
O151        O  0.24161233  0.77537695  0.32846479    -0.74700
O152        O  0.26022432  0.79500378  0.28738294    -0.84200
O153        O  0.22574497  0.75942885  0.28077668    -0.83900
O154        O  0.27744045  0.78602947  0.24110875    -0.70700
O155        O  0.24511400  0.75204442  0.23488798    -0.82800
Zr156      Zr  0.20873704  0.81715898  0.23324202     2.26400
Zr157      Zr  0.27035804  0.82278962  0.25808836     2.06300
Zr158      Zr  0.20443646  0.75349590  0.24554510     2.10000
Zr159      Zr  0.22005364  0.79566656  0.29770900     1.78800
O160        O  0.19737082  0.72520405  0.21568033    -0.91600
O161        O  0.23036255  0.82767609  0.32236497    -0.39400
O162        O  0.19748976  0.79002515  0.26281030    -0.76000
O163        O  0.22964680  0.82412113  0.26873293    -0.94700
O164        O  0.24895220  0.81687268  0.22289261    -0.88000
O165        O  0.21501659  0.78092431  0.21615642    -0.90900
C166        C  0.25722571  0.75948380  0.32969891     1.02900
C167        C  0.23570081  0.70778986  0.27127088     1.15800
C168        C  0.31442496  0.79045363  0.28576309     1.06600
O169        O  0.27849881  0.85072540  0.28805480    -0.93000
O170        O  0.25692988  0.86082764  0.24346806    -0.88800
O171        O  0.22036354  0.85609949  0.22829564    -0.81900
C172        C  0.23826765  0.86828167  0.23297350     1.13200
O173        O  0.28790729  0.75591486  0.19541696    -0.95000
Zr174      Zr  0.25524885  0.78054648  0.20607693     1.88900
O175        O  0.20952739  0.82650792  0.19197227    -0.71600
O176        O  0.30236750  0.83582688  0.23323436    -0.50900
O177        O  0.28637494  0.80022913  0.18494689    -0.95600
O178        O  0.24202052  0.75194730  0.17851164    -0.52800
O179        O  0.23717437  0.80410845  0.17556787    -0.72200
C180        C  0.22131169  0.81974278  0.17434475     1.00200
O181        O  0.17712706  0.84188058  0.24650102    -0.61000
O182        O  0.17157489  0.73990652  0.26887772    -0.55800
O183        O  0.17160488  0.80501617  0.21843892    -0.92500
O184        O  0.16818612  0.76675578  0.22559790    -0.90900
O185        O  0.19383581  0.77338382  0.32251873    -0.91300
O186        O  0.18482471  0.81647275  0.30871407    -0.90000
C187        C  0.16059617  0.78604114  0.21715137     1.19000
H188        H  0.22208059  0.74771955  0.29221602     0.35000
H189        H  0.22572867  0.83910465  0.27448284     0.45800
H190        H  0.20566447  0.77905530  0.20229105     0.39300
H191        H  0.29395113  0.78431576  0.23771093     0.35800
H192        H  0.22895807  0.82154935  0.33845548     0.27600
H193        H  0.30905573  0.84912165  0.24139266     0.33500
H194        H  0.28370638  0.81667860  0.18793469     0.39500
H195        H  0.18322403  0.76552959  0.31160793     0.33900
H196        H  0.17880795  0.73302483  0.28301306     0.32800
H197        H  0.18251781  0.71775729  0.22040589     0.34500
H198        H  0.22655215  0.75743694  0.17290646     0.33400
H199        H  0.17230187  0.81038068  0.29860217     0.37400
H200        H  0.16699159  0.83173172  0.25604843     0.30200
H201        H  0.30389368  0.72653700  0.27006941     0.34400
H202        H  0.28367403  0.74056866  0.20157750     0.37300
H203        H  0.16381076  0.75399815  0.27438252     0.29900
H204        H  0.18452234  0.85211180  0.25795773     0.42700
H205        H  0.29291316  0.85859151  0.28272381     0.32800
H206        H  0.24741782  0.82973200  0.32003461     0.40400
H207        H  0.23841167  0.73827082  0.18821106     0.32300
H208        H  0.31456465  0.82379841  0.23462213     0.32300
H209        H  0.30748698  0.74238329  0.24807374     0.32600
Zr210      Zr  0.76213968  0.26447562  0.23153675     2.17500
O211        O  0.78811748  0.28249932  0.20312255    -0.49800
O212        O  0.76817310  0.22463328  0.22296814    -0.73000
O213        O  0.80207735  0.25621479  0.24165601    -0.79800
O214        O  0.70954535  0.26595588  0.19059759    -0.81500
O215        O  0.80637764  0.26027651  0.28074055    -0.77100
O216        O  0.74882513  0.25956317  0.19243313    -0.88800
O217        O  0.74467390  0.20450627  0.24757273    -0.74700
O218        O  0.76129460  0.24633840  0.26880885    -0.84200
O219        O  0.72407628  0.24824876  0.23483532    -0.83900
O220        O  0.77122900  0.29417433  0.25831197    -0.70700
O221        O  0.73568525  0.29584914  0.22569684    -0.82800
Zr222      Zr  0.70379318  0.29238439  0.29379105     2.26400
Zr223      Zr  0.76892156  0.27594057  0.29593238     2.06300
Zr224      Zr  0.69731454  0.27934521  0.22956456     2.10000
Zr225      Zr  0.72304555  0.23096871  0.27234178     1.78800
O226        O  0.68344875  0.30648722  0.20007539    -0.91600
O227        O  0.74229903  0.20574464  0.30066653    -0.39400
O228        O  0.69531648  0.26184594  0.26759018    -0.76000
O229        O  0.73006865  0.26059111  0.30000990    -0.94700
O230        O  0.74228121  0.30744249  0.29091326    -0.88000
O231        O  0.70539545  0.30957384  0.25614204    -0.90900
C232        C  0.75973334  0.20581897  0.23092482     1.02900
C233        C  0.72933962  0.26018686  0.18139619     1.15800
C234        C  0.81423107  0.25503628  0.26035446     1.06600
O235        O  0.77940644  0.24687614  0.32492965    -0.93000
O236        O  0.75717546  0.28997092  0.33442504    -0.88800
O237        O  0.71846628  0.29956444  0.33200973    -0.81900
C238        C  0.73794475  0.29789826  0.34292832     1.13200
O239        O  0.77471209  0.33933788  0.22815497    -0.95000
Zr240      Zr  0.74373712  0.32504212  0.25361704     1.88900
O241        O  0.69755286  0.33299562  0.30087185    -0.71600
O242        O  0.80005434  0.30158691  0.30811395    -0.50900
O243        O  0.76995105  0.34888907  0.27630136    -0.95600
O244        O  0.72819387  0.35081711  0.22362580    -0.52800
O245        O  0.72079737  0.35239453  0.27560511    -0.72200
C246        C  0.70547804  0.35170952  0.29195395     1.00200
O247        O  0.67684638  0.27703292  0.32295487    -0.61000
O248        O  0.66716609  0.25146051  0.22024077    -0.55800
O249        O  0.66361383  0.29954773  0.28317835    -0.92500
O250        O  0.65961474  0.29423310  0.24423850    -0.90900
O251        O  0.69410076  0.20550679  0.25552320    -0.91300
O252        O  0.69493663  0.21617218  0.30061558    -0.90000
C253        C  0.65156629  0.29995676  0.26435104     1.19000
H254        H  0.72134605  0.23670150  0.22324222     0.35000
H255        H  0.72805042  0.25454794  0.31559525     0.45800
H256        H  0.69396634  0.32172147  0.25431069     0.39300
H257        H  0.78695932  0.29973624  0.25565104     0.35800
H258        H  0.75891925  0.20532310  0.29575810     0.27600
H259        H  0.79181561  0.31548920  0.31345270     0.33500
H260        H  0.78497841  0.34038401  0.27676156     0.39500
H261        H  0.68122048  0.21575317  0.25032317     0.33900
H262        H  0.65670477  0.25951141  0.20903910     0.32800
H263        H  0.67216825  0.29770589  0.19062587     0.34500
H264        H  0.71144135  0.35278542  0.22761371     0.33400
H265        H  0.69252172  0.22882334  0.31163560     0.37400
H266        H  0.66686300  0.26611961  0.31443868     0.30200
H267        H  0.79820145  0.26998262  0.19736707     0.34400
H268        H  0.77498945  0.35610148  0.23044007     0.37300
H269        H  0.67527591  0.23978453  0.21085121     0.29900
H270        H  0.68660202  0.26718316  0.33327603     0.42700
H271        H  0.79593982  0.25016158  0.32890658     0.32800
H272        H  0.74244479  0.21438793  0.31535873     0.40400
H273        H  0.72801926  0.34159729  0.20929979     0.32300
H274        H  0.80639238  0.29445091  0.32254720     0.32300
H275        H  0.79873215  0.29226416  0.21231206     0.32600
Zr276      Zr  0.70509499  0.75182210  0.26909347     2.17500
O277        O  0.67993953  0.72138655  0.25484080    -0.49800
O278        O  0.69505315  0.74936711  0.31002470    -0.73000
O279        O  0.71876142  0.71574083  0.28422377    -0.79800
O280        O  0.65984943  0.79935160  0.26205092    -0.81500
O281        O  0.75818768  0.71334096  0.27876743    -0.77100
O282        O  0.66462566  0.76171154  0.27156251    -0.88800
O283        O  0.71747701  0.77538550  0.32842244    -0.74700
O284        O  0.74159628  0.75779273  0.28781920    -0.84200
O285        O  0.70410234  0.79060455  0.28088952    -0.83900
O286        O  0.73395261  0.74256069  0.24042684    -0.70700
O287        O  0.69834238  0.77381123  0.23409765    -0.82800
Zr288      Zr  0.76393835  0.81074503  0.23697112     2.26400
Zr289      Zr  0.77079954  0.74944970  0.25925557     2.06300
Zr290      Zr  0.69799577  0.81302301  0.24620125     2.10000
Zr291      Zr  0.74045335  0.79658341  0.29951764     1.78800
O292        O  0.67103277  0.81756922  0.21355563    -0.91600
O293        O  0.77002190  0.78511917  0.32802244    -0.39400
O294        O  0.73479238  0.81993609  0.26523914    -0.76000
O295        O  0.77063093  0.78856331  0.27171929    -0.94700
O296        O  0.76502463  0.77208743  0.22481229    -0.88000
O297        O  0.72748333  0.80478956  0.21787984    -0.90900
C298        C  0.70198217  0.75942831  0.32847772     1.02900
C299        C  0.65215566  0.77984155  0.26980162     1.15800
C300        C  0.73839476  0.70529753  0.28616583     1.06600
O301        O  0.80052103  0.74384767  0.28924456    -0.93000
O302        O  0.80866234  0.76278290  0.24247819    -0.88800
O303        O  0.80431689  0.80045907  0.23278834    -0.81900
C304        C  0.81657586  0.78218124  0.23468114     1.13200
O305        O  0.70284250  0.73453469  0.19577691    -0.95000
Zr306      Zr  0.72856793  0.76601583  0.20614200     1.88900
O307        O  0.77408247  0.81322203  0.19624960    -0.71600
O308        O  0.78352213  0.71664262  0.23679784    -0.50900
O309        O  0.74908716  0.73658174  0.18450152    -0.95600
O310        O  0.70102274  0.77859606  0.17608712    -0.52800
O311        O  0.75431085  0.78514554  0.17796911    -0.72200
C312        C  0.76911197  0.80173155  0.17808967     1.00200
O313        O  0.78980385  0.83994198  0.25257750    -0.61000
O314        O  0.68061011  0.84419754  0.26802585    -0.55800
O315        O  0.75078132  0.84803915  0.22482010    -0.92500
O316        O  0.71117380  0.85010212  0.22881370    -0.90900
O317        O  0.71726277  0.82448929  0.32064421    -0.91300
O318        O  0.76340969  0.82975398  0.31077712    -0.90000
C319        C  0.73119497  0.85855230  0.22252986     1.19000
H320        H  0.69179758  0.79333539  0.29203970     0.35000
H321        H  0.78575808  0.79228010  0.27826310     0.45800
H322        H  0.72582638  0.81467693  0.20437501     0.39300
H323        H  0.73273856  0.72661531  0.23642284     0.35800
H324        H  0.76572696  0.79341692  0.34230984     0.27600
H325        H  0.77780828  0.71990270  0.22081293     0.33500
H326        H  0.74395501  0.73892419  0.16816153     0.39500
H327        H  0.72213005  0.82252365  0.33710418     0.33900
H328        H  0.69411430  0.85321660  0.27361393     0.32800
H329        H  0.66266979  0.83209208  0.21657609     0.34500
H330        H  0.70792823  0.77311497  0.16137319     0.33400
H331        H  0.77953073  0.82645750  0.30541190     0.37400
H332        H  0.77938289  0.85012779  0.26153046     0.30200
H333        H  0.67463276  0.71300880  0.26897436     0.34400
H334        H  0.68807219  0.73752699  0.20424400     0.37300
H335        H  0.67294932  0.85415745  0.25616414     0.29900
H336        H  0.79928224  0.83193553  0.26464845     0.42700
H337        H  0.79155779  0.74283677  0.30395980     0.32800
H338        H  0.76645463  0.76889953  0.33170697     0.40400
H339        H  0.70266397  0.79543903  0.17518182     0.32300
H340        H  0.80076848  0.71808705  0.23571649     0.32300
H341        H  0.69061994  0.71061292  0.24694686     0.32600
N342        N  0.15992701  0.22301567  0.00207085    -0.01900
C343        C  0.16329169  0.23911284  0.01866682     0.00700
C344        C  0.16682903  0.26044484  0.00875322    -0.22200
C345        C  0.16649658  0.25754656  0.98525769    -0.22400
C346        C  0.16305411  0.23448810  0.98143186     0.00600
H347        H  0.17170308  0.27594865  0.01762207     0.14400
H348        H  0.17174434  0.27028206  0.97243495     0.14400
Zr349      Zr  0.20616502  0.25610812  0.77535186     2.17500
O350        O  0.17405898  0.26713058  0.80082176    -0.49800
O351        O  0.20671879  0.21576301  0.78412815    -0.73000
O352        O  0.16979084  0.24190320  0.76059425    -0.79800
O353        O  0.25241163  0.26448720  0.82203327    -0.81500
O354        O  0.16649716  0.25003429  0.72191623    -0.77100
O355        O  0.21577618  0.25053132  0.81563947    -0.88800
O356        O  0.23505415  0.19901344  0.76269177    -0.74700
O357        O  0.21330857  0.23952599  0.73854748    -0.84200
O358        O  0.24634861  0.24540121  0.77632693    -0.83900
O359        O  0.19566812  0.28533172  0.74755655    -0.70700
O360        O  0.22663133  0.29076237  0.78378224    -0.82800
Zr361      Zr  0.26556631  0.29252376  0.71920470     2.26400
Zr362      Zr  0.20398510  0.26889193  0.71041362     2.06300
Zr363      Zr  0.26726151  0.27972734  0.78426062     2.10000
Zr364      Zr  0.25366158  0.22924514  0.73942486     1.78800
O365        O  0.27361944  0.30934677  0.81293846    -0.91600
O366        O  0.24103120  0.20394586  0.70850665    -0.39400
O367        O  0.27593961  0.26327960  0.74703380    -0.76000
O368        O  0.24474119  0.25809587  0.71060694    -0.94700
O369        O  0.22539825  0.30320704  0.71777224    -0.88000
O370        O  0.25782510  0.30881130  0.75606915    -0.90900
C371        C  0.21861221  0.19829272  0.77798667     1.02900
C372        C  0.23344488  0.25427806  0.82875210     1.15800
C373        C  0.15871807  0.24130460  0.74125623     1.06600
O374        O  0.20037231  0.23886235  0.68167682    -0.93000
O375        O  0.21802659  0.28756815  0.67387166    -0.88800
O376        O  0.25627167  0.29746749  0.67892852    -0.81900
C377        C  0.23772136  0.29595717  0.66657735     1.13200
O378        O  0.18254612  0.32774092  0.77674681    -0.95000
Zr379      Zr  0.21780908  0.31946243  0.75456315     1.88900
O380        O  0.26656085  0.33327684  0.71109035    -0.71600
O381        O  0.17091967  0.29042095  0.69444751    -0.50900
O382        O  0.18963128  0.34170253  0.73168807    -0.95600
O383        O  0.22635480  0.34543706  0.78621435    -0.52800
O384        O  0.23991448  0.34998786  0.73474880    -0.72200
C385        C  0.25628462  0.35092249  0.71934253     1.00200
O386        O  0.29768535  0.28012357  0.69437883    -0.61000
O387        O  0.29865591  0.25605831  0.80053034    -0.55800
O388        O  0.30178311  0.30675881  0.73405978    -0.92500
O389        O  0.30409931  0.29932502  0.77301775    -0.90900
O390        O  0.28504435  0.20717808  0.75786986    -0.91300
O391        O  0.28673107  0.21906052  0.71484821    -0.90000
C392        C  0.31214149  0.30781845  0.75374910     1.19000
H393        H  0.24958185  0.23412626  0.78837107     0.35000
H394        H  0.24916836  0.25268610  0.69545235     0.45800
H395        H  0.26713050  0.32229153  0.75875336     0.39300
H396        H  0.17911102  0.28870546  0.74865776     0.35800
H397        H  0.24559664  0.18842607  0.71400021     0.27600
H398        H  0.17693143  0.30618081  0.69222655     0.33500
H399        H  0.19661055  0.34297767  0.71595718     0.39500
H400        H  0.28452241  0.21143331  0.77447426     0.33900
H401        H  0.31195783  0.25784401  0.78962098     0.32800
H402        H  0.25775789  0.31305578  0.81876768     0.34500
H403        H  0.22264973  0.36084107  0.77979237     0.33400
H404        H  0.29799774  0.23177788  0.71659767     0.37400
H405        H  0.30974543  0.27390054  0.70516127     0.30200
H406        H  0.16694503  0.25250428  0.80607441     0.34400
H407        H  0.18157106  0.31512389  0.78838614     0.37300
H408        H  0.30365258  0.26417221  0.81471084     0.29900
H409        H  0.29159635  0.26649267  0.68633060     0.42700
H410        H  0.18929949  0.24514238  0.66992047     0.32800
H411        H  0.22370263  0.20404713  0.70931085     0.40400
H412        H  0.24364420  0.34523775  0.78767424     0.32300
H413        H  0.16890730  0.28460182  0.67846833     0.32300
H414        H  0.16213438  0.27426845  0.79047083     0.32600
Zr415      Zr  0.19572718  0.80030529  0.78132778     2.17500
O416        O  0.16734837  0.78545242  0.80931054    -0.49800
O417        O  0.19293756  0.84075688  0.78900899    -0.73000
O418        O  0.20913485  0.80748010  0.82018427    -0.79800
O419        O  0.14986005  0.79589207  0.73360978    -0.81500
O420        O  0.24880423  0.80396080  0.82075741    -0.77100
O421        O  0.15580431  0.80710116  0.77090761    -0.88800
O422        O  0.21740649  0.85884874  0.76378723    -0.74700
O423        O  0.23327103  0.81672635  0.77589160    -0.84200
O424        O  0.19555837  0.81471247  0.74232554    -0.83900
O425        O  0.22274132  0.77001676  0.79007325    -0.70700
O426        O  0.18707994  0.76801063  0.75764889    -0.82800
Zr427      Zr  0.25311811  0.76784886  0.72112118     2.26400
Zr428      Zr  0.26064846  0.78660470  0.78351106     2.06300
Zr429      Zr  0.18810080  0.78233182  0.71822456     2.10000
Zr430      Zr  0.23334753  0.83061291  0.73695279     1.78800
O431        O  0.15684601  0.75666339  0.70642959    -0.91600
O432        O  0.26630980  0.85501441  0.74683486    -0.39400
O433        O  0.22628164  0.79845316  0.71216790    -0.76000
O434        O  0.26156107  0.80071163  0.74406045    -0.94700
O435        O  0.25285348  0.75401667  0.76012526    -0.88000
O436        O  0.21515407  0.75187751  0.72669952    -0.90900
C437        C  0.20334517  0.85871237  0.78128409     1.02900
C438        C  0.14269167  0.80417100  0.75315402     1.15800
C439        C  0.22902958  0.80915208  0.83033399     1.06600
O440        O  0.29102214  0.81514006  0.78960811    -0.93000
O441        O  0.29781646  0.76968102  0.76973607    -0.88800
O442        O  0.29369436  0.76248470  0.73117058    -0.81900
C443        C  0.30584303  0.76303540  0.74991376     1.13200
O444        O  0.18734634  0.72845463  0.79653705    -0.95000
Zr445      Zr  0.21497907  0.73810486  0.76560496     1.88900
O446        O  0.26152167  0.72727819  0.71924173    -0.71600
O447        O  0.27366417  0.76262007  0.81602798    -0.50900
O448        O  0.23456772  0.71504926  0.79551605    -0.95600
O449        O  0.18498414  0.71182867  0.75190062    -0.52800
O450        O  0.23734470  0.70929504  0.74474956    -0.72200
C451        C  0.25340794  0.70914362  0.72908152     1.00200
O452        O  0.27830193  0.78235991  0.69007369    -0.61000
O453        O  0.17762701  0.81021968  0.68801237    -0.55800
O454        O  0.23887863  0.75526519  0.68428015    -0.92500
O455        O  0.19983374  0.76327950  0.68149162    -0.90900
O456        O  0.21015226  0.85593509  0.71187792    -0.91300
O457        O  0.25608162  0.84292591  0.70320207    -0.90000
C458        C  0.21917804  0.75464815  0.67369480     1.19000
H459        H  0.18386221  0.82654617  0.74008959     0.35000
H460        H  0.27703683  0.80633860  0.74026966     0.45800
H461        H  0.21238203  0.73899448  0.71678186     0.39300
H462        H  0.22127425  0.76523189  0.80613928     0.35800
H463        H  0.26014368  0.87082231  0.74528245     0.27600
H464        H  0.27410278  0.74695015  0.80971583     0.33500
H465        H  0.25065344  0.71264052  0.78957480     0.39500
H466        H  0.21516519  0.87155908  0.71606598     0.33900
H467        H  0.17327524  0.82420254  0.69654064     0.32800
H468        H  0.14849381  0.76513072  0.69385761     0.34500
H469        H  0.19088139  0.70609540  0.73687189     0.33400
H470        H  0.24950154  0.83426776  0.69003048     0.37400
H471        H  0.26752016  0.78979082  0.67873552     0.30200
H472        H  0.16371623  0.79843403  0.81960466     0.34400
H473        H  0.18810080  0.71159295  0.79835670     0.37300
H474        H  0.19263705  0.81410983  0.68030966     0.29900
H475        H  0.28684562  0.79527757  0.69710240     0.42700
H476        H  0.29959270  0.81624815  0.77466756     0.32800
H477        H  0.26849632  0.85262865  0.76379562     0.40400
H478        H  0.17155915  0.72180450  0.74758662     0.32300
H479        H  0.29033104  0.76672265  0.81828942     0.32300
H480        H  0.17624297  0.77448352  0.81923405     0.32600
Zr481      Zr  0.76674150  0.27308325  0.78876734     2.17500
O482        O  0.79598107  0.28574496  0.81673042    -0.49800
O483        O  0.77115398  0.23193150  0.79429583    -0.73000
O484        O  0.75347145  0.26519132  0.82781343    -0.79800
O485        O  0.81001269  0.27397039  0.73824045    -0.81500
O486        O  0.71457819  0.27337286  0.83054091    -0.77100
O487        O  0.80650030  0.26632902  0.77703499    -0.88800
O488        O  0.74488465  0.21518554  0.77044247    -0.74700
O489        O  0.72765593  0.25947457  0.78631776    -0.84200
O490        O  0.76341208  0.25839944  0.75048099    -0.83900
O491        O  0.74233850  0.30554429  0.79691638    -0.70700
O492        O  0.77605726  0.30447453  0.76300059    -0.82800
Zr493      Zr  0.70870539  0.30824299  0.72944633     2.26400
Zr494      Zr  0.70282613  0.29181727  0.79322871     2.06300
Zr495      Zr  0.77198942  0.28959941  0.72438863     2.10000
Zr496      Zr  0.72430813  0.24492771  0.74819113     1.78800
O497        O  0.80361953  0.31432394  0.71092476    -0.91600
O498        O  0.69205748  0.22389913  0.76611942    -0.39400
O499        O  0.73267918  0.27563706  0.72110076    -0.76000
O500        O  0.69878440  0.27685736  0.75479660    -0.94700
O501        O  0.71162978  0.32308722  0.76751255    -0.88000
O502        O  0.74772945  0.32200729  0.73209454    -0.90900
C503        C  0.76121821  0.21417871  0.78586453     1.02900
C504        C  0.81831322  0.26710104  0.75811562     1.15800
C505        C  0.73411856  0.26572152  0.83906177     1.06600
O506        O  0.67026760  0.26818535  0.80650169    -0.93000
O507        O  0.66491697  0.30751595  0.77862081    -0.88800
O508        O  0.66999788  0.31891148  0.74089441    -0.81900
C509        C  0.65763564  0.31675030  0.75929844     1.13200
O510        O  0.77919544  0.34533926  0.80049250    -0.95000
Zr511      Zr  0.75073715  0.33653334  0.77026566     1.88900
O512        O  0.70405077  0.34899642  0.72455517    -0.71600
O513        O  0.69498663  0.32114294  0.82188572    -0.50900
O514        O  0.73444038  0.36220110  0.79907830    -0.95600
O515        O  0.78202771  0.36029728  0.75426003    -0.52800
O516        O  0.72950022  0.36660654  0.74858714    -0.72200
C517        C  0.71313681  0.36703028  0.73310727     1.00200
O518        O  0.68058107  0.29385441  0.70127369    -0.61000
O519        O  0.78084524  0.26098447  0.69523720    -0.55800
O520        O  0.72067127  0.31810363  0.69085325    -0.92500
O521        O  0.75856449  0.30648552  0.68661610    -0.90900
O522        O  0.74008845  0.21668057  0.72164653    -0.91300
O523        O  0.69613091  0.23443083  0.71832319    -0.90000
C524        C  0.73944138  0.31597908  0.67903361     1.19000
H525        H  0.77420598  0.24590172  0.74804068     0.35000
H526        H  0.68276301  0.27226436  0.75215947     0.45800
H527        H  0.75070411  0.33425513  0.72102575     0.39300
H528        H  0.74504113  0.31050859  0.81266319     0.35800
H529        H  0.69873680  0.20880437  0.77056644     0.27600
H530        H  0.69351565  0.33550128  0.81263380     0.33500
H531        H  0.74070113  0.37747213  0.79477759     0.39500
H532        H  0.74694715  0.22581860  0.70873456     0.33900
H533        H  0.76647401  0.26006432  0.68560791     0.32800
H534        H  0.79588122  0.32901236  0.70676967     0.34500
H535        H  0.77926114  0.37560982  0.76090941     0.33400
H536        H  0.70206281  0.24167114  0.70381240     0.37400
H537        H  0.68979428  0.28352127  0.69126785     0.30200
H538        H  0.79966588  0.27205269  0.82642896     0.34400
H539        H  0.79365132  0.33716109  0.79589423     0.37300
H540        H  0.79252059  0.26843544  0.68491639     0.29900
H541        H  0.67030281  0.28343932  0.71035188     0.42700
H542        H  0.66688766  0.27349166  0.82244127     0.32800
H543        H  0.68928732  0.23158807  0.78111010     0.40400
H544        H  0.77820531  0.36222275  0.73753499     0.32300
H545        H  0.67885589  0.31792014  0.82732119     0.32300
H546        H  0.78752239  0.29618753  0.82724794     0.32600
Zr547      Zr  0.74149667  0.81672269  0.78688215     2.17500
O548        O  0.72547305  0.84661537  0.81143888    -0.49800
O549        O  0.78296490  0.82313652  0.79293776    -0.73000
O550        O  0.74933838  0.80661004  0.82647158    -0.79800
O551        O  0.74336431  0.85596066  0.73410241    -0.81500
O552        O  0.74465883  0.76828049  0.83152805    -0.77100
O553        O  0.75040838  0.85439885  0.77315966    -0.88800
O554        O  0.80250148  0.79751423  0.77102361    -0.74700
O555        O  0.75769073  0.77926955  0.78731327    -0.84200
O556        O  0.75828553  0.81212097  0.74948679    -0.83900
O557        O  0.70942180  0.79194573  0.79632841    -0.70700
O558        O  0.70993165  0.82350732  0.76014141    -0.82800
Zr559      Zr  0.71122467  0.75561588  0.73090200     2.26400
Zr560      Zr  0.72576729  0.75399704  0.79563191     2.06300
Zr561      Zr  0.72707983  0.81835050  0.72237810     2.10000
Zr562      Zr  0.77413338  0.77466326  0.74980938     1.78800
O563        O  0.70034102  0.84795402  0.70815426    -0.91600
O564        O  0.79848474  0.74610958  0.76955037    -0.39400
O565        O  0.74334131  0.78036828  0.72169808    -0.76000
O566        O  0.74263926  0.74861906  0.75781336    -0.94700
O567        O  0.69463961  0.75993118  0.76839051    -0.88000
O568        O  0.69511106  0.79318772  0.73092759    -0.90900
C569        C  0.80196595  0.81429451  0.78522517     1.02900
C570        C  0.75072941  0.86461624  0.75338828     1.15800
C571        C  0.75082587  0.78827547  0.83873441     1.06600
O572        O  0.75137628  0.72298052  0.80875789    -0.93000
O573        O  0.70723063  0.71706213  0.78488036    -0.88800
O574        O  0.69986766  0.71877668  0.74587896    -0.81900
C575        C  0.69919010  0.70861686  0.76573821     1.13200
O576        O  0.66612892  0.82683128  0.79535521    -0.95000
Zr577      Zr  0.67847743  0.79731327  0.76837865     1.88900
O578        O  0.66995165  0.74942359  0.72421379    -0.71600
O579        O  0.69737243  0.74866997  0.82680026    -0.50900
O580        O  0.65251291  0.78151465  0.79815457    -0.95600
O581        O  0.65294436  0.82489053  0.74855789    -0.52800
O582        O  0.65026694  0.77339777  0.74787331    -0.72200
C583        C  0.65091925  0.75737821  0.73275100     1.00200
O584        O  0.72879355  0.72637730  0.70660078    -0.61000
O585        O  0.75665575  0.82688996  0.69303380    -0.55800
O586        O  0.70354600  0.76552640  0.69097079    -0.92500
O587        O  0.71119175  0.80342074  0.68522485    -0.90900
O588        O  0.80062850  0.79102381  0.72086380    -0.91300
O589        O  0.78792029  0.74587199  0.72278488    -0.90000
C590        C  0.70361682  0.78375081  0.67834318     1.19000
H591        H  0.77082986  0.82285932  0.74663694     0.35000
H592        H  0.74818703  0.73305844  0.75651341     0.45800
H593        H  0.68283384  0.79501467  0.71946583     0.39300
H594        H  0.70365740  0.79522858  0.81173960     0.35800
H595        H  0.81477788  0.75067782  0.76586855     0.27600
H596        H  0.68221861  0.74664994  0.81867919     0.33500
H597        H  0.64926426  0.76565285  0.79327119     0.39500
H598        H  0.81654891  0.78810021  0.72714011     0.33900
H599        H  0.75487115  0.84347034  0.68967913     0.32800
H600        H  0.71021175  0.85823224  0.69847773     0.34500
H601        H  0.64585660  0.81650866  0.73546570     0.33400
H602        H  0.78068093  0.75017962  0.70766720     0.37400
H603        H  0.73956628  0.73487609  0.69613775     0.30200
H604        H  0.73898914  0.85223481  0.82054192     0.34400
H605        H  0.64877899  0.82686414  0.79482538     0.37300
H606        H  0.77177071  0.82560108  0.70144638     0.29900
H607        H  0.73931905  0.71759669  0.71716396     0.42700
H608        H  0.74138503  0.71322609  0.81886037     0.32800
H609        H  0.79669410  0.74936410  0.78631961     0.40400
H610        H  0.66380548  0.83589105  0.74102153     0.32300
H611        H  0.70102126  0.73336674  0.83349321     0.32300
H612        H  0.71548437  0.83852050  0.82295380     0.32600
N613        N  0.47700060  0.68043935  0.71514199    -0.01900
C614        C  0.49730592  0.67994340  0.72765093     0.00700
C615        C  0.49267700  0.67821444  0.75118481    -0.22200
C616        C  0.46880937  0.67839453  0.75344968    -0.22400
C617        C  0.45949063  0.68043977  0.73128102     0.00600
H618        H  0.50520849  0.67937957  0.76528106     0.14400
H619        H  0.45939671  0.68027869  0.76965873     0.14400
N620        N  0.28849870  0.53171161  0.67496279    -0.01900
C621        C  0.27524961  0.51281583  0.67913762     0.00700
C622        C  0.25449778  0.51884982  0.68985930    -0.22200
C623        C  0.25481858  0.54219381  0.69214647    -0.22400
C624        C  0.27572239  0.54964805  0.68272021     0.00600
H625        H  0.24089253  0.50738669  0.69596491     0.14400
H626        H  0.24152450  0.55258334  0.70032137     0.14400
N627        N  0.48390034  0.34752903  0.68474159    -0.01900
C628        C  0.50197617  0.33257549  0.68824236     0.00700
C629        C  0.49381176  0.31054308  0.69145973    -0.22200
C630        C  0.46993381  0.31183549  0.69077160    -0.22400
C631        C  0.46419544  0.33460151  0.68719090     0.00600
H632        H  0.50399632  0.29558835  0.69640917     0.14400
H633        H  0.45801865  0.29812337  0.69539491     0.14400
N634        N  0.63377163  0.53735988  0.71491117    -0.01900
C635        C  0.63710154  0.51709437  0.72655915     0.00700
C636        C  0.64097859  0.52057058  0.74994425    -0.22200
C637        C  0.64041360  0.54363577  0.75309639    -0.22400
C638        C  0.63617003  0.55367042  0.73158254     0.00600
H639        H  0.64562533  0.50777341  0.76296944     0.14400
H640        H  0.64448796  0.55234402  0.76910468     0.14400
N641        N  0.48191749  0.38878118  0.29068716    -0.01900
C642        C  0.50207643  0.38675393  0.27816159     0.00700
C643        C  0.49759628  0.38874275  0.25459454    -0.22200
C644        C  0.47398688  0.39134603  0.25214131    -0.22400
C645        C  0.46467219  0.39091560  0.27431064     0.00600
H646        H  0.50986303  0.38575330  0.24059772     0.14400
H647        H  0.46442693  0.39093903  0.23586116     0.14400
N648        N  0.68251819  0.53017718  0.34029388    -0.01900
C649        C  0.69098456  0.50890970  0.33564576     0.00700
C650        C  0.71177931  0.51032649  0.32348359    -0.22200
C651        C  0.71653661  0.53309094  0.32049139    -0.22400
C652        C  0.69850889  0.54494554  0.33088917     0.00600
H653        H  0.72202763  0.49621392  0.31690402     0.14400
H654        H  0.73145368  0.54032870  0.31142948     0.14400
N655        N  0.48633793  0.74881979  0.36320194    -0.01900
C656        C  0.50631375  0.76153224  0.36427971     0.00700
C657        C  0.50159843  0.78330261  0.37202050    -0.22200
C658        C  0.47791047  0.78463068  0.37496731    -0.22400
C659        C  0.46874258  0.76371879  0.36870207     0.00600
H660        H  0.51367956  0.79752901  0.37268684     0.14400
H661        H  0.46817352  0.80025951  0.37785786     0.14400
N662        N  0.30139942  0.53427266  0.31281080    -0.01900
C663        C  0.29818169  0.51462075  0.30069381     0.00700
C664        C  0.27997841  0.51702075  0.28498572    -0.22200
C665        C  0.27130484  0.53861818  0.28744520    -0.22400
C666        C  0.28446262  0.54889391  0.30454606     0.00600
H667        H  0.27298697  0.50396218  0.27375809     0.14400
H668        H  0.25685350  0.54614438  0.27776249     0.14400
N669        N  0.63118160  0.74174402  0.50534789    -0.01900
C670        C  0.63022778  0.75114985  0.48355257     0.00700
C671        C  0.62942426  0.77472776  0.48451708    -0.22200
C672        C  0.63018779  0.78027162  0.50755172    -0.22400
C673        C  0.63144543  0.75989566  0.52002641     0.00600
H674        H  0.63058020  0.78663518  0.46995887     0.14400
H675        H  0.63200023  0.79736281  0.51433932     0.14400
N676        N  0.66539224  0.35137404  0.50870163    -0.01900
C677        C  0.66660634  0.33348964  0.49375601     0.00700
C678        C  0.66562907  0.31284920  0.50568726    -0.22200
C679        C  0.66488431  0.31790930  0.52876818    -0.22400
C680        C  0.66568401  0.34147229  0.53035241     0.00600
H681        H  0.66827296  0.29596830  0.49861554     0.14400
H682        H  0.66736975  0.30567829  0.54289869     0.14400
N683        N  0.27126586  0.68445173  0.50552203    -0.01900
C684        C  0.26134083  0.68660346  0.48412824     0.00700
C685        C  0.23721045  0.68652764  0.48570357    -0.22200
C686        C  0.23192341  0.68432633  0.50886467    -0.22400
C687        C  0.25302054  0.68324990  0.52070929     0.00600
H688        H  0.22486446  0.68994049  0.47174586     0.14400
H689        H  0.21462756  0.68579407  0.51642235     0.14400
N690        N  0.27299969  0.38585870  0.50005527    -0.01900
C691        C  0.25711093  0.38748666  0.48242072     0.00700
C692        C  0.23512612  0.39246414  0.49096787    -0.22200
C693        C  0.23724331  0.39298509  0.51470436    -0.22400
C694        C  0.26040847  0.38809308  0.52005319     0.00600
H695        H  0.21879931  0.39248390  0.48134089     0.14400
H696        H  0.22271652  0.39307742  0.52680717     0.14400
O697        O  0.91959642  0.99211739  0.99947439    -0.84900
O698        O  0.05199450  0.00524610  0.00601862    -0.85100
O699        O  0.98918941  0.97489074  0.96176906    -0.86800
O700        O  0.98756186  0.96655649  0.03818682    -0.85500
O701        O  0.98085601  0.99049979  0.06893861    -0.85100
O702        O  0.98701782  0.00584217  0.93691736    -0.86500
O703        O  0.02763512  0.97455992  0.00126402    -0.85000
O704        O  0.95099988  0.96755363  0.99664624    -0.84500
Zr705      Zr  0.98695094  0.98931474  0.00189611     2.84300
O706        O  0.00627288  0.01187043  0.02939107    -1.06500
O707        O  0.96200894  0.01305971  0.97962293    -1.07200
C708        C  0.92880245  0.97201877  0.99682546     1.08200
C709        C  0.04828070  0.98370899  0.00281861     1.08100
C710        C  0.98862838  0.98409962  0.94108325     1.11100
C711        C  0.98458664  0.97045848  0.06013167     1.08900
H712        H  0.01986402  0.00969695  0.97205188     0.34400
O713        O  0.00872137  0.01717815  0.98202741    -1.27500
H714        H  0.94999668  0.99634307  0.03415699     0.34100
O715        O  0.95932447  0.00764053  0.02600448    -1.29100
O716        O  0.04413232  0.07807317  0.01172005    -0.84900
O717        O  0.91134159  0.06676280  0.00464688    -0.86400
O718        O  0.02354912  0.04438817  0.94300228    -0.85000
O719        O  0.01628095  0.03139776  0.07460125    -0.85000
O720        O  0.93929552  0.02719406  0.07011072    -0.84800
O721        O  0.94653783  0.03826531  0.93832490    -0.84600
O722        O  0.97782790  0.10480424  0.97317447    -0.84900
O723        O  0.97561663  0.09667757  0.05101713    -0.84400
O724        O  0.98206753  0.07933311  0.94327354    -0.85500
O725        O  0.97640565  0.06553648  0.07583278    -0.84600
O726        O  0.04967221  0.04461200  0.97335701    -0.85000
O727        O  0.91695256  0.03117735  0.96440827    -0.84700
O728        O  0.91298166  0.02802870  0.03987177    -0.84400
O729        O  0.04567181  0.03677222  0.04786280    -0.84800
O730        O  0.01404181  0.10412301  0.01176235    -0.85100
O731        O  0.93609444  0.09713100  0.01016010    -0.86400
Zr732      Zr  0.02803426  0.03969053  0.00933844     2.83100
Zr733      Zr  0.93458792  0.03133365  0.00333399     2.83500
Zr734      Zr  0.98390021  0.04068401  0.95954020     2.84100
Zr735      Zr  0.97888676  0.03024569  0.05334631     2.83400
Zr736      Zr  0.97680372  0.08243349  0.01044861     2.84200
O737        O  0.95470533  0.05404851  0.03016523    -1.07000
O738        O  0.00364715  0.06331379  0.98657411    -1.06500
C739        C  0.03617114  0.09876903  0.01194588     1.08200
C740        C  0.91537176  0.08837122  0.00747363     1.10800
C741        C  0.04460881  0.04524096  0.95147542     1.08300
C742        C  0.03809306  0.03383727  0.06884553     1.08700
C743        C  0.91816245  0.02712728  0.06178281     1.08300
C744        C  0.92481113  0.03427586  0.94349323     1.07800
C745        C  0.97998612  0.09976442  0.95127799     1.08300
C746        C  0.97589554  0.08740239  0.07175735     1.07800
H747        H  0.94655694  0.06873485  0.97398365     0.34400
O748        O  0.95678136  0.05932672  0.98352600    -1.28100
H749        H  0.00975946  0.06729869  0.04420486     0.34500
O750        O  0.00107177  0.05820943  0.03327554    -1.29500
O751        O  0.47502475  0.59570438  0.54710196    -0.84900
O752        O  0.48404415  0.46575845  0.53771234    -0.85100
O753        O  0.44118342  0.52787345  0.56799736    -0.86800
O754        O  0.51582728  0.53294728  0.57180427    -0.85500
O755        O  0.54640956  0.53656802  0.54625158    -0.85100
O756        O  0.41385690  0.53096919  0.53870085    -0.86500
O757        O  0.48209875  0.49200069  0.56696711    -0.85000
O758        O  0.47457815  0.56501280  0.57236014    -0.84500
Zr759      Zr  0.47940999  0.53006103  0.54993821     2.84300
O760        O  0.50540255  0.50972102  0.52641754    -1.06500
O761        O  0.45522621  0.55374762  0.52728445    -1.07200
C762        C  0.47362862  0.58674423  0.56786335     1.08200
C763        C  0.48356160  0.47132562  0.55956787     1.08100
C764        C  0.41999511  0.52971048  0.56041351     1.11100
C765        C  0.53777168  0.53573020  0.56713410     1.08900
H766        H  0.44813899  0.49676029  0.53269310     0.34400
O767        O  0.45784694  0.50737929  0.52403323    -1.27500
H768        H  0.51118462  0.56601122  0.54093765     0.34100
O769        O  0.50274178  0.55666105  0.53008925    -1.29100
O770        O  0.48550443  0.47273651  0.45956526    -0.84900
O771        O  0.47806156  0.60252188  0.47065057    -0.86400
O772        O  0.41658991  0.49371259  0.49639057    -0.85000
O773        O  0.55024254  0.49951047  0.50554042    -0.85000
O774        O  0.54620757  0.57516075  0.50862289    -0.84800
O775        O  0.41283611  0.56793331  0.50207472    -0.84600
O776        O  0.44608647  0.53847384  0.43566962    -0.84900
O777        O  0.52333769  0.54190558  0.44009546    -0.84400
O778        O  0.41636681  0.53387194  0.46209733    -0.85500
O779        O  0.55018357  0.54108508  0.46992866    -0.84600
O780        O  0.44611355  0.46679980  0.49619573    -0.85000
O781        O  0.43899300  0.59719994  0.50740551    -0.84700
O782        O  0.51560586  0.60078411  0.50865282    -0.84400
O783        O  0.52358859  0.47054485  0.50084546    -0.84800
O784        O  0.48572846  0.50354857  0.43435243    -0.85100
O785        O  0.48329104  0.57772435  0.44040222    -0.86400
Zr786      Zr  0.48395801  0.48724287  0.50001010     2.83100
Zr787      Zr  0.47837711  0.58041763  0.50730364     2.83500
Zr788      Zr  0.43411729  0.53160776  0.50094223     2.84100
Zr789      Zr  0.52914065  0.53642226  0.50669734     2.83400
Zr790      Zr  0.48383719  0.53860908  0.45682013     2.84200
O791        O  0.50480012  0.56032600  0.48377593    -1.07000
O792        O  0.46058522  0.51203200  0.47721564    -1.06500
C793        C  0.48589663  0.48178636  0.43873884     1.08200
C794        C  0.48047325  0.59801560  0.44877424     1.10800
C795        C  0.42420669  0.47289451  0.49515597     1.08300
C796        C  0.54481388  0.47810073  0.50318648     1.08700
C797        C  0.53770676  0.59578806  0.50873671     1.08300
C798        C  0.41800817  0.58927587  0.50481301     1.07800
C799        C  0.42408776  0.53646152  0.44105214     1.08300
C800        C  0.54456849  0.54248305  0.44813235     1.07800
H801        H  0.44756238  0.56802326  0.47111397     0.34400
O802        O  0.45742974  0.55820704  0.48063443    -1.28100
H803        H  0.51829014  0.50619482  0.47013852     0.34500
O804        O  0.50754553  0.51428792  0.48006694    -1.29500
C805        C  0.33896238  0.39260451  0.50139275     0.14200
C806        C  0.34172129  0.41516170  0.49265867     0.01200
C807        C  0.32152389  0.42742788  0.48588529     0.16200
C808        C  0.29919723  0.41774978  0.48838876     0.25600
C809        C  0.29635042  0.39531873  0.49736093    -0.40700
C810        C  0.31648617  0.38277155  0.50365372     0.32600
C811        C  0.36516355  0.42680593  0.49229273     0.01300
F812        F  0.32331560  0.44925797  0.47767276    -0.13100
F813        F  0.31438039  0.36102123  0.51191506    -0.13600
C814        C  0.37413427  0.43680281  0.47165502     0.16200
C815        C  0.39422171  0.45079601  0.47222235     0.25600
C816        C  0.40592635  0.45483327  0.49338072    -0.40700
C817        C  0.39766818  0.44394339  0.51370977     0.32600
C818        C  0.37752426  0.43014617  0.51320710     0.14300
F819        F  0.36304446  0.43351148  0.45103973    -0.13000
F820        F  0.40832480  0.44785791  0.53440660    -0.13600
F821        F  0.40177972  0.46100976  0.45223849    -0.15800
F822        F  0.36915781  0.42131854  0.53351581    -0.14400
F823        F  0.35807207  0.38006268  0.50763907    -0.14400
F824        F  0.28014941  0.43062467  0.48263422    -0.15800
C825        C  0.31537040  0.63761970  0.51437764     0.14200
C826        C  0.33653553  0.64876677  0.50902196     0.01200
C827        C  0.33616624  0.67257191  0.50470341     0.16200
C828        C  0.31481817  0.68470197  0.50462975     0.25600
C829        C  0.29360702  0.67328013  0.50913263    -0.40700
C830        C  0.29418319  0.64967763  0.51425139     0.32600
C831        C  0.35845476  0.63502573  0.50670269     0.01300
F832        F  0.35629535  0.68387262  0.49954569    -0.13100
F833        F  0.27393633  0.63800180  0.51778588    -0.13600
C834        C  0.35908737  0.61658767  0.49121741     0.16200
C835        C  0.37862604  0.60212907  0.49031400     0.25600
C836        C  0.39814015  0.60578871  0.50479466    -0.40700
C837        C  0.39798586  0.62482510  0.51960605     0.32600
C838        C  0.37827808  0.63927821  0.52058617     0.14300
F839        F  0.34060214  0.61247243  0.47696797    -0.13000
F840        F  0.41642615  0.62882448  0.53394365    -0.13600
F841        F  0.37850543  0.58457063  0.47507162    -0.15800
F842        F  0.37815821  0.65680347  0.53584146    -0.14400
F843        F  0.31516251  0.61480824  0.51924271    -0.14400
F844        F  0.31477930  0.70743569  0.49958204    -0.15800
C845        C  0.61735624  0.39076952  0.48675166     0.14200
C846        C  0.62028316  0.40993261  0.50092706     0.01200
C847        C  0.64040197  0.41098506  0.51510493     0.16200
C848        C  0.65637284  0.39255839  0.51621483     0.25600
C849        C  0.65230211  0.37236450  0.50362758    -0.40700
C850        C  0.63282803  0.37214647  0.48827265     0.32600
C851        C  0.60136899  0.42772825  0.50203117     0.01300
F852        F  0.64399653  0.42937177  0.52881953    -0.13100
F853        F  0.62760566  0.35332197  0.47574371    -0.13600
C854        C  0.57842439  0.42135466  0.50826704     0.16200
C855        C  0.56020003  0.43754565  0.50861223     0.25600
C856        C  0.56443437  0.46081418  0.50307519    -0.40700
C857        C  0.58763026  0.46722898  0.49729479     0.32600
C858        C  0.60578858  0.45086770  0.49664926     0.14300
F859        F  0.57369475  0.39931861  0.51441945    -0.13000
F860        F  0.59274174  0.48928037  0.49161942    -0.13600
F861        F  0.53845172  0.43035652  0.51482400    -0.15800
F862        F  0.62760260  0.45756249  0.49012179    -0.14400
F863        F  0.59886144  0.38971640  0.47189308    -0.14400
F864        F  0.67554941  0.39437542  0.53000608    -0.15800
C865        C  0.62079628  0.67806088  0.50674258     0.14200
C866        C  0.59685096  0.67706284  0.51272454     0.01200
C867        C  0.58559948  0.69750246  0.51927556     0.16200
C868        C  0.59736193  0.71851605  0.51805642     0.25600
C869        C  0.62089451  0.71967764  0.51084087    -0.40700
C870        C  0.63270847  0.69912772  0.50602366     0.32600
C871        C  0.58297287  0.65537539  0.51063668     0.01300
F872        F  0.56286852  0.69723360  0.52625847    -0.13100
F873        F  0.65567550  0.69942511  0.50016396    -0.13600
C874        C  0.59010726  0.63463233  0.52142959     0.16200
C875        C  0.57595008  0.61492112  0.52023917     0.25600
C876        C  0.55416536  0.61566213  0.50859802    -0.40700
C877        C  0.54757650  0.63618581  0.49713617     0.32600
C878        C  0.56188882  0.65556234  0.49786178     0.14300
F879        F  0.61036963  0.63360140  0.53381732    -0.13000
F880        F  0.52723794  0.63750833  0.48485401    -0.13600
F881        F  0.58312018  0.59543607  0.53129481    -0.15800
F882        F  0.55514431  0.67460486  0.48576136    -0.14400
F883        F  0.63239931  0.65885628  0.50034525    -0.14400
F884        F  0.58532001  0.73799514  0.52267764    -0.15800
C885        C  0.35980626  0.53199092  0.34361404     0.14200
C886        C  0.35423907  0.54027278  0.36585025     0.01200
C887        C  0.33120277  0.54830204  0.36967434     0.16200
C888        C  0.31400461  0.54710347  0.35210727     0.25600
C889        C  0.31945960  0.53810392  0.33018000    -0.40700
C890        C  0.34273734  0.53114953  0.32600608     0.32600
C891        C  0.37211328  0.53964438  0.38516494     0.01300
F892        F  0.32524391  0.55715693  0.39056699    -0.13100
F893        F  0.34895211  0.52328564  0.30477537    -0.13600
C894        C  0.39462286  0.54914277  0.38214375     0.16200
C895        C  0.41142886  0.54801953  0.40009586     0.25600
C896        C  0.40626911  0.53736485  0.42169742    -0.40700
C897        C  0.38371400  0.52778680  0.42463482     0.32600
C898        C  0.36697455  0.52888360  0.40664880     0.14300
F899        F  0.40029997  0.55996794  0.36187540    -0.13000
F900        F  0.37789938  0.51674638  0.44475359    -0.13600
F901        F  0.43263364  0.55789974  0.39640643    -0.15800
F902        F  0.34585559  0.51872522  0.41004693    -0.14400
F903        F  0.38159058  0.52376736  0.33913617    -0.14400
F904        F  0.29176216  0.55372744  0.35694893    -0.15800
C905        C  0.47297042  0.68539145  0.36930094     0.14200
C906        C  0.48285600  0.68034572  0.39129205     0.01200
C907        C  0.49464789  0.69771826  0.40307582     0.16200
C908        C  0.49616520  0.71981178  0.39351260     0.25600
C909        C  0.48606712  0.72524324  0.37166630    -0.40700
C910        C  0.47471665  0.70764016  0.35946953     0.32600
C911        C  0.48025539  0.65754268  0.40302693     0.01300
F912        F  0.50422335  0.69337015  0.42433925    -0.13100
F913        F  0.46537366  0.71188101  0.33813536    -0.13600
C914        C  0.49764559  0.64057852  0.40082140     0.16200
C915        C  0.49729669  0.62076833  0.41506862     0.25600
C916        C  0.47979019  0.61779021  0.43210605    -0.40700
C917        C  0.46204380  0.63447706  0.43379013     0.32600
C918        C  0.46223776  0.65407530  0.41935365     0.14300
F919        F  0.51556538  0.64371619  0.38560873    -0.13000
F920        F  0.44453980  0.63185166  0.44958071    -0.13600
F921        F  0.51483047  0.60515153  0.41315063    -0.15800
F922        F  0.44529688  0.67019248  0.42194349    -0.14400
F923        F  0.46129358  0.66892690  0.35758531    -0.14400
F924        F  0.50693636  0.73623133  0.40608092    -0.15800
C925        C  0.62370044  0.55064501  0.36164579     0.14200
C926        C  0.62403124  0.54269455  0.38492779     0.01200
C927        C  0.64427305  0.53156329  0.39336578     0.16200
C928        C  0.66348016  0.52787195  0.37872669     0.25600
C929        C  0.66304195  0.53538243  0.35538611    -0.40700
C930        C  0.64309994  0.54707567  0.34701008     0.32600
C931        C  0.60296154  0.54465010  0.40014136     0.01300
F932        F  0.64513502  0.52353985  0.41564562    -0.13100
F933        F  0.64208746  0.55426675  0.32448350    -0.13600
C934        C  0.58207752  0.53336529  0.39426828     0.16200
C935        C  0.56286524  0.53333244  0.40947602     0.25600
C936        C  0.56417483  0.54434434  0.43108890    -0.40700
C937        C  0.58496233  0.55604688  0.43675702     0.32600
C938        C  0.60409833  0.55624392  0.42141945     0.14300
F939        F  0.58071657  0.52128658  0.37430422    -0.13000
F940        F  0.58679214  0.56732178  0.45718761    -0.13600
F941        F  0.54344520  0.52138184  0.40359117    -0.15800
F942        F  0.62388663  0.56758092  0.42746685    -0.14400
F943        F  0.60453833  0.56175997  0.35309606    -0.14400
F944        F  0.68262264  0.51681560  0.38731893    -0.15800
C945        C  0.49425617  0.46062245  0.37649553     0.14200
C946        C  0.48465447  0.43845680  0.37747465     0.01200
C947        C  0.47621138  0.43024673  0.39906695     0.16200
C948        C  0.47705390  0.44397137  0.41904973     0.25600
C949        C  0.48630321  0.46634919  0.41797996    -0.40700
C950        C  0.49492390  0.47438272  0.39630006     0.32600
C951        C  0.48266112  0.42458377  0.35571319     0.01300
F952        F  0.46619170  0.40924726  0.40064481    -0.13100
F953        F  0.50406943  0.49571147  0.39407112    -0.13600
C954        C  0.49203998  0.40226374  0.35432586     0.16200
C955        C  0.49113907  0.39005764  0.33331897     0.25600
C956        C  0.48091652  0.39990935  0.31317302    -0.40700
C957        C  0.47127680  0.42210812  0.31480077     0.32600
C958        C  0.47192263  0.43409761  0.33572529     0.14300
F959        F  0.50284490  0.39255244  0.37308704    -0.13000
F960        F  0.46204241  0.43277339  0.29573979    -0.13600
F961        F  0.50037120  0.36868845  0.33274414    -0.15800
F962        F  0.46211712  0.45527942  0.33634287    -0.14400
F963        F  0.50311575  0.46907276  0.35620628    -0.14400
F964        F  0.46775753  0.43568729  0.43918443    -0.15800
C965        C  0.61600981  0.55501086  0.65350241     0.14200
C966        C  0.59557660  0.54196343  0.65038606     0.01200
C967        C  0.58782943  0.52790500  0.66882035     0.16200
C968        C  0.60027621  0.52670927  0.68982560     0.25600
C969        C  0.62093999  0.53954173  0.69308120    -0.40700
C970        C  0.62850844  0.55391891  0.67467800     0.32600
C971        C  0.58200022  0.54278678  0.62815183     0.01300
F972        F  0.56825308  0.51498290  0.66633474    -0.13100
F973        F  0.64823340  0.56649890  0.67680300    -0.13600
C974        C  0.59139714  0.53401470  0.60745568     0.16200
C975        C  0.57739874  0.53214298  0.58734177     0.25600
C976        C  0.55364466  0.53890887  0.58761685    -0.40700
C977        C  0.54472336  0.54872203  0.60815164     0.32600
C978        C  0.55872761  0.55065556  0.62806266     0.14300
F979        F  0.61387719  0.52637218  0.60702603    -0.13000
F980        F  0.52233843  0.55665128  0.60901862    -0.13600
F981        F  0.58683432  0.52281982  0.56798002    -0.15800
F982        F  0.54945476  0.56012751  0.64744736    -0.14400
F983        F  0.62375181  0.56896498  0.63608110    -0.14400
F984        F  0.59186410  0.51310446  0.70721640    -0.15800
C985        C  0.49260762  0.44179502  0.61864799     0.14200
C986        C  0.48324103  0.41995308  0.61497433     0.01200
C987        C  0.47456073  0.41476845  0.59266710     0.16200
C988        C  0.47515567  0.43109066  0.57444715     0.25600
C989        C  0.48445709  0.45304728  0.57810044    -0.40700
C990        C  0.49338878  0.45805776  0.60046780     0.32600
C991        C  0.48404922  0.40203640  0.63380663     0.01300
F992        F  0.46514152  0.39388868  0.58861560    -0.13100
F993        F  0.50337778  0.47865653  0.60473810    -0.13600
C994        C  0.47261027  0.40491862  0.65532781     0.16200
C995        C  0.47312613  0.38741989  0.67248016     0.25600
C996        C  0.48525921  0.36680179  0.66853879    -0.40700
C997        C  0.49717792  0.36437291  0.64717388     0.32600
C998        C  0.49657519  0.38171482  0.63015389     0.14300
F999        F  0.46041043  0.42441008  0.65950270    -0.13000
F1000       F  0.50877795  0.34472823  0.64226373    -0.13600
F1001       F  0.46177935  0.39066999  0.69287481    -0.15800
F1002       F  0.50829400  0.37860202  0.60989005    -0.14400
F1003       F  0.50163917  0.44721957  0.63974022    -0.14400
F1004       F  0.46597253  0.42558409  0.55345726    -0.15800
C1005       C  0.36821463  0.55213827  0.59420950     0.14200
C1006       C  0.36694280  0.53636191  0.61288210     0.01200
C1007       C  0.38378103  0.51881519  0.61465970     0.16200
C1008       C  0.40101102  0.51649197  0.59752312     0.25600
C1009       C  0.40150459  0.53156007  0.57821392    -0.40700
C1010       C  0.38528874  0.54968339  0.57695653     0.32600
C1011       C  0.34679413  0.53672371  0.62913847     0.01300
F1012       F  0.38298760  0.50341685  0.63256175    -0.13100
F1013       F  0.38643840  0.56538990  0.55934200    -0.13600
C1014       C  0.32402671  0.53343383  0.62043883     0.16200
C1015       C  0.30501218  0.53165134  0.63562798     0.25600
C1016       C  0.30836075  0.53329791  0.65972280    -0.40700
C1017       C  0.33093995  0.53721855  0.66850124     0.32600
C1018       C  0.35012136  0.53873715  0.65331532     0.14300
F1019       F  0.32033833  0.53116331  0.59723158    -0.13000
F1020       F  0.33440351  0.53914598  0.69174414    -0.13600
F1021       F  0.28319884  0.52829109  0.62688674    -0.15800
F1022       F  0.37190529  0.54210155  0.66215818    -0.14400
F1023       F  0.35293198  0.56995739  0.59275038    -0.14400
F1024       F  0.41677376  0.49910861  0.59942873    -0.15800
C1025       C  0.46377883  0.66657797  0.65228639     0.14200
C1026       C  0.47094970  0.64341845  0.65115837     0.01200
C1027       C  0.47988899  0.63294320  0.67158146     0.16200
C1028       C  0.48169505  0.64513890  0.69233188     0.25600
C1029       C  0.47489214  0.66830493  0.69338166    -0.40700
C1030       C  0.46575739  0.67887024  0.67319773     0.32600
C1031       C  0.46950305  0.63003105  0.62895794     0.01300
F1032       F  0.48735027  0.61085824  0.67142642    -0.13100
F1033       F  0.45886701  0.70109049  0.67373133    -0.13600
C1034       C  0.47975410  0.63823063  0.60812937     0.16200
C1035       C  0.48034248  0.62463628  0.58805567     0.25600
C1036       C  0.47101931  0.60229141  0.58832833    -0.40700
C1037       C  0.45996656  0.59447492  0.60892560     0.32600
C1038       C  0.45906408  0.60818319  0.62880405     0.14300
F1039       F  0.49024592  0.65904341  0.60745512    -0.13000
F1040       F  0.44981234  0.57348439  0.60988522    -0.13600
F1041       F  0.49106556  0.63301505  0.56867648    -0.15800
F1042       F  0.44790138  0.59999179  0.64803082    -0.14400
F1043       F  0.45436339  0.67718353  0.63328745    -0.14400
F1044       F  0.49000380  0.63418208  0.71165417    -0.15800
C1045       C  0.66393643  0.76207167  0.63051012     0.14200
C1046       C  0.67327360  0.77241174  0.61048626     0.01200
C1047       C  0.69248262  0.78736540  0.61268481     0.16200
C1048       C  0.70218675  0.79183378  0.63475096     0.25600
C1049       C  0.69292673  0.78119627  0.65483732    -0.40700
C1050       C  0.67353226  0.76641048  0.65236680     0.32600
C1051       C  0.66202824  0.76808959  0.58762654     0.01300
F1052       F  0.70176474  0.79763965  0.59349245    -0.13100
F1053       F  0.66354054  0.75624764  0.67127744    -0.13600
C1054       C  0.64050774  0.77856503  0.58210048     0.16200
C1055       C  0.62955574  0.77449860  0.56071628     0.25600
C1056       C  0.63968632  0.75949728  0.54457355    -0.40700
C1057       C  0.66077253  0.74828749  0.55053820     0.32600
C1058       C  0.67188636  0.75260905  0.57186915     0.14300
F1059       F  0.63041412  0.79323722  0.59724297    -0.13000
F1060       F  0.67148365  0.73442396  0.53504402    -0.13600
F1061       F  0.60941302  0.78586817  0.55539034    -0.15800
F1062       F  0.69245421  0.74194464  0.57700879    -0.14400
F1063       F  0.64547289  0.74756024  0.62884150    -0.14400
F1064       F  0.72097697  0.80591734  0.63638995    -0.15800
C1065       C  0.68968484  0.64454076  0.76224924     0.14200
C1066       C  0.66765419  0.64391355  0.75093380     0.01200
C1067       C  0.65507062  0.66450556  0.74821016     0.16200
C1068       C  0.66455035  0.68517106  0.75578997     0.25600
C1069       C  0.68722347  0.68608606  0.76542657    -0.40700
C1070       C  0.69951279  0.66549536  0.76914376     0.32600
C1071       C  0.65778016  0.62198261  0.74193919     0.01300
F1072       F  0.63409636  0.66488067  0.73699937    -0.13100
F1073       F  0.72152174  0.66579387  0.77813201    -0.13600
C1074       C  0.63494935  0.61498637  0.74803469     0.16200
C1075       C  0.62634404  0.59366809  0.74113938     0.25600
C1076       C  0.64048877  0.57851358  0.72853724    -0.40700
C1077       C  0.66296174  0.58582944  0.72164249     0.32600
C1078       C  0.67128459  0.60752318  0.72777909     0.14300
F1079       F  0.62163572  0.62791308  0.76236957    -0.13000
F1080       F  0.67791092  0.57101273  0.71127165    -0.13600
F1081       F  0.60511059  0.58665849  0.74910681    -0.15800
F1082       F  0.69305833  0.61391680  0.72080425    -0.14400
F1083       F  0.70190159  0.62490319  0.76625200    -0.14400
F1084       F  0.65195683  0.70469832  0.75270751    -0.15800
C1085       C  0.60731642  0.71544248  0.70664329     0.14200
C1086       C  0.58597691  0.72353015  0.71544472     0.01200
C1087       C  0.58577770  0.74382964  0.72824099     0.16200
C1088       C  0.60665604  0.75536709  0.73305534     0.25600
C1089       C  0.62836603  0.74679056  0.72520469    -0.40700
C1090       C  0.62826849  0.72695848  0.71130167     0.32600
C1091       C  0.56427101  0.70970533  0.71370265     0.01300
F1092       F  0.56541135  0.75180200  0.73729226    -0.13100
F1093       F  0.64852136  0.71787568  0.70309845    -0.13600
C1094       C  0.56277595  0.68867973  0.72575802     0.16200
C1095       C  0.54115009  0.67767272  0.72833736     0.25600
C1096       C  0.52059322  0.68747740  0.71888902    -0.40700
C1097       C  0.52245041  0.70762429  0.70527316     0.32600
C1098       C  0.54412540  0.71866524  0.70275224     0.14300
F1099       F  0.58191379  0.67979912  0.73673880    -0.13000
F1100       F  0.50297855  0.71790021  0.69638131    -0.13600
F1101       F  0.54002659  0.65818566  0.74143482    -0.15800
F1102       F  0.54521393  0.73884026  0.69078913    -0.14400
F1103       F  0.60795339  0.69595327  0.69406917    -0.14400
F1104       F  0.60552021  0.77452101  0.74611496    -0.15800
C1105       C  0.71595637  0.35172118  0.57057100     0.14200
C1106       C  0.70469254  0.34973080  0.59218053     0.01200
C1107       C  0.68006445  0.35062770  0.59302982     0.16200
C1108       C  0.66688803  0.35101967  0.57239791     0.25600
C1109       C  0.67815850  0.35080409  0.55071152    -0.40700
C1110       C  0.70280101  0.35229876  0.54995408     0.32600
C1111       C  0.71811083  0.34213944  0.61303394     0.01300
F1112       F  0.66879776  0.34881658  0.61376134    -0.13100
F1113       F  0.71420906  0.35142360  0.52926578    -0.13600
C1114       C  0.72346362  0.35728939  0.63099187     0.16200
C1115       C  0.73311461  0.34894585  0.65194746     0.25600
C1116       C  0.73772169  0.32537431  0.65514062    -0.40700
C1117       C  0.73344320  0.31048064  0.63669688     0.32600
C1118       C  0.72375451  0.31880586  0.61579947     0.14300
F1119       F  0.71824717  0.37989235  0.62867091    -0.13000
F1120       F  0.73638785  0.28757632  0.63977746    -0.13600
F1121       F  0.73634084  0.36359088  0.66981562    -0.15800
F1122       F  0.71821632  0.30381025  0.59882497    -0.14400
F1123       F  0.73971409  0.35101285  0.56940468    -0.14400
F1124       F  0.64319789  0.34923728  0.57353514    -0.15800
C1125       C  0.56595954  0.32494394  0.70103114     0.14200
C1126       C  0.56850741  0.33864286  0.72077524     0.01200
C1127       C  0.55045462  0.35396843  0.72652876     0.16200
C1128       C  0.52934081  0.35408021  0.71390162     0.25600
C1129       C  0.52604919  0.33878793  0.69547527    -0.40700
C1130       C  0.54495272  0.32502826  0.68847981     0.32600
C1131       C  0.58941157  0.33542187  0.73592343     0.01300
F1132       F  0.55255303  0.36748953  0.74542398    -0.13100
F1133       F  0.54243733  0.31040137  0.67048983    -0.13600
C1134       C  0.60712209  0.35200788  0.73653866     0.16200
C1135       C  0.62888767  0.34673400  0.74670588     0.25600
C1136       C  0.63316244  0.32488027  0.75666229    -0.40700
C1137       C  0.61469260  0.30910263  0.75787792     0.32600
C1138       C  0.59299934  0.31432505  0.74755119     0.14300
F1139       F  0.60401136  0.37257376  0.72564587    -0.13000
F1140       F  0.61841726  0.28776410  0.76679039    -0.13600
F1141       F  0.64641934  0.36236695  0.74529527    -0.15800
F1142       F  0.57592736  0.29818353  0.74751004    -0.14400
F1143       F  0.58345076  0.31052622  0.69467584    -0.14400
F1144       F  0.51131543  0.36735352  0.72122845    -0.15800
C1145       C  0.70010517  0.43109039  0.72811914     0.14200
C1146       C  0.68006406  0.43126579  0.71386129     0.01200
C1147       C  0.67251577  0.41079019  0.70402487     0.16200
C1148       C  0.68417970  0.39022778  0.70907761     0.25600
C1149       C  0.70325044  0.38952149  0.72494112    -0.40700
C1150       C  0.71149859  0.41044268  0.73379742     0.32600
C1151       C  0.66555814  0.45225983  0.71167785     0.01300
F1152       F  0.65335048  0.41061770  0.68998397    -0.13100
F1153       F  0.73009763  0.41099044  0.74854987    -0.13600
C1154       C  0.67377102  0.47169230  0.69956611     0.16200
C1155       C  0.66201199  0.49270905  0.70142540     0.25600
C1156       C  0.64247612  0.49465952  0.71614556    -0.40700
C1157       C  0.63312393  0.47474067  0.72653868     0.32600
C1158       C  0.64446415  0.45366623  0.72414094     0.14300
F1159       F  0.69403230  0.47064733  0.68728214    -0.13000
F1160       F  0.61430085  0.47613731  0.74089487    -0.13600
F1161       F  0.67132544  0.51163913  0.69111729    -0.15800
F1162       F  0.63610408  0.43506423  0.73585434    -0.14400
F1163       F  0.70789560  0.45083577  0.73757829    -0.14400
F1164       F  0.67613328  0.37094775  0.69887933    -0.15800
C1165       C  0.23634790  0.70821810  0.63263026     0.14200
C1166       C  0.23451810  0.71931405  0.61084653     0.01200
C1167       C  0.22429767  0.74135252  0.60968614     0.16200
C1168       C  0.21710905  0.75245715  0.63004453     0.25600
C1169       C  0.21981908  0.74160896  0.65182727    -0.40700
C1170       C  0.22888477  0.71915980  0.65280625     0.32600
C1171       C  0.24299168  0.70786471  0.58936844     0.01300
F1172       F  0.22165629  0.75229151  0.58884049    -0.13100
F1173       F  0.23162266  0.70823558  0.67366177    -0.13600
C1174       C  0.23432540  0.68622637  0.58324234     0.16200
C1175       C  0.23983691  0.67681931  0.56163212     0.25600
C1176       C  0.25416395  0.68878585  0.54575957    -0.40700
C1177       C  0.26434978  0.70951780  0.55259588     0.32600
C1178       C  0.25888338  0.71893541  0.57424616     0.14300
F1179       F  0.21910789  0.67494024  0.59742404    -0.13000
F1180       F  0.27769364  0.72179933  0.53740881    -0.13600
F1181       F  0.22979786  0.65674769  0.55546933    -0.15800
F1182       F  0.26836727  0.73937112  0.58002768    -0.14400
F1183       F  0.24650804  0.68722807  0.63457306    -0.14400
F1184       F  0.20886619  0.77423986  0.62860471    -0.15800
C1185       C  0.36322690  0.73178578  0.76286964     0.14200
C1186       C  0.37455160  0.73316128  0.74111770     0.01200
C1187       C  0.36427771  0.74638272  0.72324901     0.16200
C1188       C  0.34250111  0.75695273  0.72655408     0.25600
C1189       C  0.33050421  0.75475103  0.74797108    -0.40700
C1190       C  0.34140848  0.74247179  0.76628417     0.32600
C1191       C  0.39612659  0.71953370  0.73645358     0.01300
F1192       F  0.37480770  0.74812540  0.70212645    -0.13100
F1193       F  0.33032454  0.73956324  0.78700141    -0.13600
C1194       C  0.39532787  0.69546874  0.73723334     0.16200
C1195       C  0.41567781  0.68243113  0.73360783     0.25600
C1196       C  0.43710156  0.69319270  0.72852952    -0.40700
C1197       C  0.43771846  0.71726585  0.72695148     0.32600
C1198       C  0.41744720  0.73031721  0.73089130     0.14300
F1199       F  0.37480466  0.68461619  0.74182204    -0.13000
F1200       F  0.45841739  0.72819053  0.72343546    -0.13600
F1201       F  0.41468500  0.65931709  0.73601252    -0.15800
F1202       F  0.41891158  0.75350875  0.73044098    -0.14400
F1203       F  0.37308952  0.71962849  0.78067134    -0.14400
F1204       F  0.33285368  0.76888530  0.70846238    -0.15800
C1205       C  0.27356763  0.61340983  0.67492182     0.14200
C1206       C  0.28329983  0.62024691  0.69624818     0.01200
C1207       C  0.29502910  0.60391714  0.71024135     0.16200
C1208       C  0.29496497  0.58081716  0.70420157     0.25600
C1209       C  0.28329010  0.57370586  0.68405751    -0.40700
C1210       C  0.27338662  0.59022227  0.66897522     0.32600
C1211       C  0.27787997  0.64324163  0.70556678     0.01300
F1212       F  0.30497856  0.61011319  0.73068225    -0.13100
F1213       F  0.26171902  0.58366306  0.64957422    -0.13600
C1214       C  0.26480735  0.64502615  0.72618071     0.16200
C1215       C  0.25747262  0.66635758  0.73414881     0.25600
C1216       C  0.26289601  0.68657231  0.72157959    -0.40700
C1217       C  0.27686229  0.68475605  0.70134180     0.32600
C1218       C  0.28412034  0.66329933  0.69339697     0.14300
F1219       F  0.25823034  0.62591678  0.73818438    -0.13000
F1220       F  0.28306048  0.70362512  0.68876086    -0.13600
F1221       F  0.24478433  0.66702823  0.75410206    -0.15800
F1222       F  0.29708114  0.66209196  0.67365532    -0.14400
F1223       F  0.26223882  0.62881731  0.66098168    -0.14400
F1224       F  0.30409954  0.56509148  0.71930765    -0.15800
C1225       C  0.26152877  0.33716101  0.56085868     0.14200
C1226       C  0.25748237  0.34749334  0.58242160     0.01200
C1227       C  0.25872685  0.37151413  0.58374356     0.16200
C1228       C  0.26225242  0.38494257  0.56355775     0.25600
C1229       C  0.26496704  0.37461608  0.54175750    -0.40700
C1230       C  0.26516037  0.35053947  0.54080058     0.32600
C1231       C  0.25126414  0.33313009  0.60317422     0.01300
F1232       F  0.25593611  0.38198586  0.60449999    -0.13100
F1233       F  0.26635982  0.33985977  0.52008981    -0.13600
C1234       C  0.26627617  0.31538782  0.61063947     0.16200
C1235       C  0.26061842  0.30184958  0.63009693     0.25600
C1236       C  0.23994314  0.30589453  0.64281399    -0.40700
C1237       C  0.22463027  0.32330452  0.63511421     0.32600
C1238       C  0.23016479  0.33672099  0.61538170     0.14300
F1239       F  0.28704822  0.31187326  0.59973482    -0.13000
F1240       F  0.20523054  0.32844533  0.64767583    -0.13600
F1241       F  0.27596378  0.28536192  0.63722420    -0.15800
F1242       F  0.21508891  0.35349165  0.60842993    -0.14400
F1243       F  0.26026600  0.31406312  0.55886346    -0.14400
F1244       F  0.26163496  0.40809517  0.56504911    -0.15800
C1245       C  0.27090659  0.41444679  0.71666548     0.14200
C1246       C  0.27865553  0.41729765  0.69358305     0.01200
C1247       C  0.27960588  0.39810289  0.67915348     0.16200
C1248       C  0.27248846  0.37653373  0.68753638     0.25600
C1249       C  0.26410888  0.37376064  0.71052783    -0.40700
C1250       C  0.26367487  0.39296774  0.72504720     0.32600
C1251       C  0.28283294  0.44079925  0.68419651     0.01300
F1252       F  0.28710196  0.40032467  0.65682344    -0.13100
F1253       F  0.25635574  0.39098784  0.74745468    -0.13600
C1254       C  0.30019655  0.45489548  0.69385779     0.16200
C1255       C  0.29978691  0.47866014  0.68971720     0.25600
C1256       C  0.28200668  0.48855547  0.67585693    -0.40700
C1257       C  0.26632693  0.47412758  0.66421839     0.32600
C1258       C  0.26670670  0.45046656  0.66835654     0.14300
F1259       F  0.31639280  0.44585710  0.70871689    -0.13000
F1260       F  0.24910978  0.48325373  0.65060558    -0.13600
F1261       F  0.31501113  0.49215666  0.70138105    -0.15800
F1262       F  0.24969355  0.43733980  0.65884188    -0.14400
F1263       F  0.26943707  0.43276516  0.73087378    -0.14400
F1264       F  0.27295855  0.35853928  0.67283541    -0.15800
C1265       C  0.39952747  0.33463550  0.69700896     0.14200
C1266       C  0.39853996  0.34143992  0.72035832     0.01200
C1267       C  0.41857860  0.35068333  0.73076184     0.16200
C1268       C  0.43987107  0.35129536  0.71861899     0.25600
C1269       C  0.44131114  0.34281674  0.69581440    -0.40700
C1270       C  0.42077997  0.33523830  0.68487137     0.32600
C1271       C  0.37743719  0.33611714  0.73437319     0.01300
F1272       F  0.41784880  0.35765052  0.75318901    -0.13100
F1273       F  0.42185792  0.32627032  0.66322739    -0.13600
C1274       C  0.37698510  0.31631720  0.74864155     0.16200
C1275       C  0.35573566  0.30827611  0.75789438     0.25600
C1276       C  0.33477202  0.31996773  0.75290325    -0.40700
C1277       C  0.33572040  0.34103044  0.74064388     0.32600
C1278       C  0.35683871  0.34889245  0.73121226     0.14300
F1279       F  0.39675813  0.30366645  0.75180311    -0.13000
F1280       F  0.31571601  0.35293939  0.73603857    -0.13600
F1281       F  0.35529317  0.28788029  0.76949021    -0.15800
F1282       F  0.35688481  0.36809132  0.71762057    -0.14400
F1283       F  0.38035137  0.32554186  0.68664197    -0.14400
F1284       F  0.45957219  0.35776448  0.73003588    -0.15800
C1285       C  0.12897024  0.16645341  0.99310127     0.14200
C1286       C  0.10874417  0.16913663  0.00689198     0.01200
C1287       C  0.10659563  0.18890127  0.02025255     0.16200
C1288       C  0.12366047  0.20605045  0.01926377     0.25600
C1289       C  0.14377512  0.20388224  0.00499423    -0.40700
C1290       C  0.14634739  0.18357526  0.99225127     0.32600
C1291       C  0.09004798  0.15125420  0.00802697     0.01300
F1292       F  0.08781947  0.19161336  0.03445397    -0.13100
F1293       F  0.16574844  0.18014568  0.97914877    -0.13600
C1294       C  0.09515016  0.12931872  0.01690949     0.16200
C1295       C  0.07759036  0.11264302  0.01877669     0.25600
C1296       C  0.05423358  0.11743643  0.01183410    -0.40700
C1297       C  0.04902354  0.13972639  0.00351321     0.32600
C1298       C  0.06674661  0.15636354  0.00153683     0.14300
F1299       F  0.11715376  0.12418019  0.02439457    -0.13000
F1300       F  0.02691983  0.14535634  0.99671723    -0.13600
F1301       F  0.08354800  0.09181813  0.02779128    -0.15800
F1302       F  0.06120615  0.17744384  0.99289857    -0.14400
F1303       F  0.13167918  0.14742391  0.98008316    -0.14400
F1304       F  0.11983640  0.22519772  0.03178225    -0.15800
C1305       C  0.22368385  0.25313074  0.89388889     0.14200
C1306       C  0.21331170  0.23142213  0.89688712     0.01200
C1307       C  0.21338904  0.21619846  0.87825545     0.16200
C1308       C  0.22208982  0.22314289  0.85651541     0.25600
C1309       C  0.23089222  0.24547328  0.85295875    -0.40700
C1310       C  0.23251513  0.26008903  0.87208056     0.32600
C1311       C  0.19997365  0.22594691  0.91844558     0.01300
F1312       F  0.20401682  0.19497931  0.88083983    -0.13100
F1313       F  0.24068565  0.28173171  0.86918686    -0.13600
C1314       C  0.17531998  0.22687748  0.91812998     0.16200
C1315       C  0.16260487  0.22663636  0.93900537     0.25600
C1316       C  0.17428946  0.22496257  0.96047077    -0.40700
C1317       C  0.19882866  0.22193997  0.96064001     0.32600
C1318       C  0.21157390  0.22255487  0.93978388     0.14300
F1319       F  0.16371068  0.23016456  0.89770541    -0.13000
F1320       F  0.21068736  0.22122910  0.98115823    -0.13600
F1321       F  0.13911839  0.23036935  0.93839240    -0.15800
F1322       F  0.23533813  0.22142533  0.94051643    -0.14400
F1323       F  0.22361502  0.26821513  0.91164164    -0.14400
F1324       F  0.22078939  0.20841539  0.83849042    -0.15800
C1325       C  0.68838846  0.75644943  0.39339929     0.14200
C1326       C  0.66986112  0.74061318  0.39449993     0.01200
C1327       C  0.66226067  0.73046731  0.37378077     0.16200
C1328       C  0.67260279  0.73643312  0.35237749     0.25600
C1329       C  0.69123534  0.75239026  0.35124635    -0.40700
C1330       C  0.69915594  0.76197408  0.37223785     0.32600
C1331       C  0.65786843  0.73615179  0.41718079     0.01300
F1332       F  0.64478399  0.71474198  0.37422906    -0.13100
F1333       F  0.71719519  0.77707609  0.37247984    -0.13600
C1334       C  0.63366554  0.74036031  0.41962486     0.16200
C1335       C  0.62365039  0.74200421  0.44182745     0.25600
C1336       C  0.63769397  0.73990094  0.46187228    -0.40700
C1337       C  0.66139262  0.73379705  0.45941566     0.32600
C1338       C  0.67120782  0.73130038  0.43730257     0.14300
F1339       F  0.62019197  0.74525105  0.40068957    -0.13000
F1340       F  0.67583671  0.73333237  0.47821785    -0.13600
F1341       F  0.60073626  0.74800961  0.44375495    -0.15800
F1342       F  0.69437226  0.72620387  0.43556820    -0.14400
F1343       F  0.69561299  0.76737733  0.41283316    -0.14400
F1344       F  0.66400597  0.72675418  0.33279569    -0.15800
C1345       C  0.54744608  0.75312971  0.31401918     0.14200
C1346       C  0.56832131  0.76219535  0.32309611     0.01200
C1347       C  0.56967755  0.76655161  0.34707046     0.16200
C1348       C  0.54992092  0.76376556  0.36126165     0.25600
C1349       C  0.52844695  0.75658197  0.35175936    -0.40700
C1350       C  0.52769622  0.75031764  0.32822503     0.32600
C1351       C  0.58837215  0.76765379  0.30745678     0.01300
F1352       F  0.58994546  0.77419524  0.35660209    -0.13100
F1353       F  0.50727660  0.74362640  0.31835409    -0.13600
C1354       C  0.59762599  0.78998660  0.30603886     0.16200
C1355       C  0.61735007  0.79475352  0.29215982     0.25600
C1356       C  0.62798942  0.77728314  0.27924288    -0.40700
C1357       C  0.61762048  0.75531199  0.27962650     0.32600
C1358       C  0.59834601  0.75051407  0.29380066     0.14300
F1359       F  0.58780014  0.80709789  0.31847613    -0.13000
F1360       F  0.62689952  0.73798248  0.26706695    -0.13600
F1361       F  0.62687954  0.81600117  0.29261078    -0.15800
F1362       F  0.59015308  0.72873101  0.29506086    -0.14400
F1363       F  0.54564155  0.74854892  0.29098507    -0.14400
F1364       F  0.55134414  0.76939267  0.38407015    -0.15800
C1365       C  0.71619468  0.65745372  0.32510996     0.14200
C1366       C  0.72357338  0.63801080  0.31307657     0.01200
C1367       C  0.73879946  0.64081393  0.29394026     0.16200
C1368       C  0.74550128  0.66280082  0.28624580     0.25600
C1369       C  0.73696588  0.68232155  0.29747659    -0.40700
C1370       C  0.72275710  0.67936135  0.31738991     0.32600
C1371       C  0.71409052  0.61505810  0.31954286     0.01300
F1372       F  0.74648739  0.62226022  0.28219296    -0.13100
F1373       F  0.71426043  0.69783820  0.32875349    -0.13600
C1374       C  0.69933485  0.60347216  0.30405458     0.16200
C1375       C  0.69152669  0.58127081  0.30930803     0.25600
C1376       C  0.69814823  0.57024764  0.33022677    -0.40700
C1377       C  0.71196973  0.58225302  0.34623171     0.32600
C1378       C  0.71977628  0.60452823  0.34100182     0.14300
F1379       F  0.69323072  0.61335864  0.28338437    -0.13000
F1380       F  0.71965220  0.57160028  0.36597744    -0.13600
F1381       F  0.67925453  0.56969614  0.29300033    -0.15800
F1382       F  0.73419627  0.61520902  0.35618101    -0.14400
F1383       F  0.70138545  0.65528436  0.34348207    -0.14400
F1384       F  0.75872811  0.66505873  0.26673880    -0.15800
C1385       C  0.72569687  0.29797774  0.40665094     0.14200
C1386       C  0.71711713  0.32046928  0.40900580     0.01200
C1387       C  0.72055779  0.33639140  0.39083854     0.16200
C1388       C  0.73043354  0.32940132  0.36986840     0.25600
C1389       C  0.73711618  0.30645630  0.36679116    -0.40700
C1390       C  0.73564864  0.29100044  0.38562108     0.32600
C1391       C  0.70232566  0.32649110  0.42919666     0.01300
F1392       F  0.71234059  0.35812687  0.39257831    -0.13100
F1393       F  0.74156072  0.26867749  0.38287830    -0.13600
C1394       C  0.70887150  0.34396152  0.44443805     0.16200
C1395       C  0.69566722  0.34808867  0.46451919     0.25600
C1396       C  0.67581680  0.33469037  0.46964322    -0.40700
C1397       C  0.66829020  0.31851620  0.45333654     0.32600
C1398       C  0.68142994  0.31445164  0.43332831     0.14300
F1399       F  0.72886339  0.35598678  0.44066340    -0.13000
F1400       F  0.64882945  0.30575416  0.45743104    -0.13600
F1401       F  0.70350092  0.36373284  0.47991240    -0.15800
F1402       F  0.67412457  0.29822467  0.41827180    -0.14400
F1403       F  0.72300745  0.28241326  0.42421237    -0.14400
F1404       F  0.73133004  0.34448221  0.35168056    -0.15800
C1405       C  0.68918373  0.44684344  0.34840296     0.14200
C1406       C  0.67655494  0.43959767  0.32883407     0.01200
C1407       C  0.66275534  0.45565262  0.31647153     0.16200
C1408       C  0.66396534  0.47899342  0.32176503     0.25600
C1409       C  0.67930729  0.48655953  0.33919319    -0.40700
C1410       C  0.69056366  0.47017924  0.35351507     0.32600
C1411       C  0.68166833  0.41683202  0.31872975     0.01300
F1412       F  0.64996375  0.44898266  0.29782136    -0.13100
F1413       F  0.70546881  0.47701622  0.37047833    -0.13600
C1414       C  0.67618536  0.39638279  0.33060727     0.16200
C1415       C  0.68332970  0.37516785  0.32176117     0.25600
C1416       C  0.69655058  0.37402910  0.30097780    -0.40700
C1417       C  0.70158170  0.39472687  0.28900030     0.32600
C1418       C  0.69412017  0.41573780  0.29771133     0.14300
F1419       F  0.66399812  0.39698880  0.35085779    -0.13000
F1420       F  0.71395601  0.39486270  0.26882977    -0.13600
F1421       F  0.67770675  0.35586322  0.33390780    -0.15800
F1422       F  0.69986186  0.43524460  0.28593643    -0.14400
F1423       F  0.70254297  0.43171964  0.36077395    -0.14400
F1424       F  0.65279624  0.49442752  0.30773871    -0.15800
C1425       C  0.59611363  0.33466498  0.25358437     0.14200
C1426       C  0.58486427  0.33261026  0.27534629     0.01200
C1427       C  0.59415325  0.31739915  0.29210113     0.16200
C1428       C  0.61494734  0.30546771  0.28771950     0.25600
C1429       C  0.62716627  0.30870672  0.26657502    -0.40700
C1430       C  0.61715415  0.32296566  0.24928465     0.32600
C1431       C  0.56408542  0.34705166  0.28079625     0.01300
F1432       F  0.58376212  0.31496525  0.31323021    -0.13100
F1433       F  0.62843991  0.32677520  0.22881743    -0.13600
C1434       C  0.54263131  0.33710978  0.28747839     0.16200
C1435       C  0.52250894  0.35073576  0.28979073     0.25600
C1436       C  0.52355607  0.37452381  0.28563103    -0.40700
C1437       C  0.54531204  0.38456750  0.28061615     0.32600
C1438       C  0.56540889  0.37101032  0.27836709     0.14300
F1439       F  0.54070845  0.31404200  0.28990884    -0.13000
F1440       F  0.54663109  0.40734146  0.27580773    -0.13600
F1441       F  0.50154615  0.34039598  0.29362664    -0.15800
F1442       F  0.58602549  0.38121485  0.27275263    -0.14400
F1443       F  0.58696467  0.34846707  0.23664194    -0.14400
F1444       F  0.62354966  0.29121055  0.30455751    -0.15800
C1445       C  0.25504850  0.74447184  0.39441795     0.14200
C1446       C  0.27466338  0.73005620  0.39714741     0.01200
C1447       C  0.28907084  0.72601405  0.37787335     0.16200
C1448       C  0.28372930  0.73585973  0.35610476     0.25600
C1449       C  0.26376690  0.75004694  0.35314121    -0.40700
C1450       C  0.24965752  0.75437660  0.37276109     0.32600
C1451       C  0.27860089  0.71800379  0.41974787     0.01300
F1452       F  0.30830090  0.71241772  0.38011600    -0.13100
F1453       F  0.23002901  0.76748413  0.37097167    -0.13600
C1454       C  0.27684800  0.69399619  0.42121235     0.16200
C1455       C  0.27397184  0.68306484  0.44287963     0.25600
C1456       C  0.27306772  0.69596621  0.46326071    -0.40700
C1457       C  0.27722762  0.71963247  0.46198029     0.32600
C1458       C  0.28018051  0.73055484  0.44038494     0.14300
F1459       F  0.27555924  0.68139057  0.40158797    -0.13000
F1460       F  0.27575461  0.73252516  0.48141010    -0.13600
F1461       F  0.26997753  0.66018008  0.44380986    -0.15800
F1462       F  0.28266748  0.75365591  0.43949252    -0.14400
F1463       F  0.24039451  0.74816544  0.41260188    -0.14400
F1464       F  0.29812952  0.73131201  0.33795140    -0.15800
C1465       C  0.24791716  0.64452664  0.27075357     0.14200
C1466       C  0.25138400  0.63987416  0.29464268     0.01200
C1467       C  0.24553394  0.65675725  0.31082393     0.16200
C1468       C  0.23837368  0.67856520  0.30310870     0.25600
C1469       C  0.23653522  0.68366320  0.27914489    -0.40700
C1470       C  0.24055514  0.66626744  0.26306495     0.32600
C1471       C  0.26222625  0.61782788  0.30228269     0.01300
F1472       F  0.24806229  0.65255795  0.33399527    -0.13100
F1473       F  0.23904008  0.67082141  0.23987690    -0.13600
C1474       C  0.28494358  0.61205566  0.29478320     0.16200
C1475       C  0.29389376  0.58992804  0.29854298     0.25600
C1476       C  0.28033800  0.57323182  0.30996280    -0.40700
C1477       C  0.25825198  0.57950827  0.31887377     0.32600
C1478       C  0.24936193  0.60168149  0.31526241     0.14300
F1479       F  0.29786854  0.62748357  0.28248803    -0.13000
F1480       F  0.24423674  0.56340900  0.32887448    -0.13600
F1481       F  0.31455781  0.58403529  0.28856704    -0.15800
F1482       F  0.22735757  0.60672688  0.32260216    -0.14400
F1483       F  0.25245106  0.62816947  0.25481927    -0.14400
F1484       F  0.23433837  0.69511720  0.31898496    -0.15800
C1485       C  0.40440198  0.77742854  0.35933544     0.14200
C1486       C  0.40227989  0.77489297  0.33507760     0.01200
C1487       C  0.42172852  0.76668308  0.32262274     0.16200
C1488       C  0.44262379  0.76090587  0.33401203     0.25600
C1489       C  0.44492293  0.76356575  0.35817681    -0.40700
C1490       C  0.42561969  0.77210630  0.37069683     0.32600
C1491       C  0.37985089  0.77987303  0.32248958     0.01300
F1492       F  0.42092208  0.76535788  0.29905607    -0.13100
F1493       F  0.42772759  0.77632422  0.39378732    -0.13600
C1494       C  0.36805026  0.80108324  0.32417378     0.16200
C1495       C  0.34723550  0.80528344  0.31149324     0.25600
C1496       C  0.33794823  0.78834999  0.29692780    -0.40700
C1497       C  0.35029923  0.76752591  0.29487728     0.32600
C1498       C  0.37057957  0.76323680  0.30771878     0.14300
F1499       F  0.37673277  0.81778608  0.33789276    -0.13000
F1500       F  0.34267514  0.75096931  0.28037833    -0.13600
F1501       F  0.33586718  0.82553342  0.31402300    -0.15800
F1502       F  0.38098116  0.74239607  0.30597191    -0.14400
F1503       F  0.38606713  0.78523078  0.37202462    -0.14400
F1504       F  0.46131163  0.75479433  0.32093944    -0.15800
C1505       C  0.10012034  0.01903212  0.16398426     0.14200
C1506       C  0.10723750  0.02932007  0.14291834     0.01200
C1507       C  0.13007964  0.03823738  0.14121344     0.16200
C1508       C  0.14505321  0.03788987  0.16064695     0.25600
C1509       C  0.13736943  0.02879117  0.18209059    -0.40700
C1510       C  0.11491646  0.01897205  0.18340531     0.32600
C1511       C  0.09024228  0.03154901  0.12334568     0.01300
F1512       F  0.13752725  0.04817309  0.12105823    -0.13100
F1513       F  0.10684785  0.01038386  0.20394025    -0.13600
C1514       C  0.06893403  0.04328851  0.12656947     0.16200
C1515       C  0.05192825  0.04400482  0.10894667     0.25600
C1516       C  0.05600741  0.03319324  0.08761105    -0.40700
C1517       C  0.07767685  0.02210377  0.08410860     0.32600
C1518       C  0.09460362  0.02124956  0.10182807     0.14300
F1519       F  0.06470633  0.05426688  0.14681556    -0.13000
F1520       F  0.08217284  0.01140689  0.06375882    -0.13600
F1521       F  0.03172785  0.05577621  0.11253610    -0.15800
F1522       F  0.11494773  0.00973810  0.09821787    -0.14400
F1523       F  0.07853296  0.00945529  0.16586129    -0.14400
F1524       F  0.16685798  0.04676710  0.15855754    -0.15800
C1525       C  0.21543271  0.91806272  0.19826130     0.14200
C1526       C  0.21222495  0.93412156  0.21588558     0.01200
C1527       C  0.22311576  0.93033774  0.23764833     0.16200
C1528       C  0.23484947  0.90968647  0.24253179     0.25600
C1529       C  0.23575200  0.89253663  0.22571533    -0.40700
C1530       C  0.22709051  0.89742458  0.20315142     0.32600
C1531       C  0.19520533  0.95321954  0.21288081     0.01300
F1532       F  0.22086919  0.94601714  0.25472358    -0.13100
F1533       F  0.22793540  0.88119699  0.18647684    -0.13600
C1534       C  0.17533741  0.95397159  0.22728081     0.16200
C1535       C  0.16088954  0.97329622  0.22731560     0.25600
C1536       C  0.16592807  0.99221994  0.21284609    -0.40700
C1537       C  0.18448291  0.99060982  0.19679589     0.32600
C1538       C  0.19901390  0.97116445  0.19677771     0.14300
F1539       F  0.17050973  0.93629185  0.24208304    -0.13000
F1540       F  0.19000427  0.00868763  0.18278831    -0.13600
F1541       F  0.14281412  0.97416932  0.24262874    -0.15800
F1542       F  0.21772647  0.97059360  0.18223803    -0.14400
F1543       F  0.20539171  0.92137101  0.17702769    -0.14400
F1544       F  0.24293714  0.90548417  0.26441133    -0.15800
C1545       C  0.26548319  0.34035240  0.43940425     0.14200
C1546       C  0.25430197  0.34934345  0.41943445     0.01200
C1547       C  0.24718529  0.37248600  0.41933026     0.16200
C1548       C  0.24953833  0.38568024  0.43941171     0.25600
C1549       C  0.26000053  0.37630246  0.45958927    -0.40700
C1550       C  0.26892841  0.35389175  0.45892539     0.32600
C1551       C  0.24978667  0.33445894  0.39903816     0.01300
F1552       F  0.23754568  0.38220172  0.39994290    -0.13100
F1553       F  0.27938801  0.34430481  0.47785657    -0.13600
C1554       C  0.22729709  0.33330845  0.38890191     0.16200
C1555       C  0.22340540  0.32023819  0.36897456     0.25600
C1556       C  0.24188804  0.30791442  0.35887949    -0.40700
C1557       C  0.26398784  0.30791213  0.36994220     0.19000
C1558       C  0.26794236  0.32116999  0.38960109     0.14300
F1559       F  0.20910016  0.34514099  0.39808524    -0.13000
F1560       F  0.28216627  0.29573316  0.36113853    -0.13600
F1561       F  0.20195524  0.32088723  0.35872409    -0.15800
F1562       F  0.28992216  0.32185024  0.39868142    -0.14400
F1563       F  0.27176955  0.31794451  0.44068152    -0.14400
F1564       F  0.24100933  0.40740022  0.43938814    -0.15800
C1565       C  0.35266213  0.36199003  0.26228498     0.14200
C1566       C  0.37495721  0.35185308  0.26102473     0.01200
C1567       C  0.37703003  0.32964324  0.25185397     0.16200
C1568       C  0.35702656  0.31755446  0.24486661     0.25600
C1569       C  0.33474958  0.32748759  0.24702135    -0.40700
C1570       C  0.33282123  0.34992143  0.25535023     0.32600
C1571       C  0.39602965  0.36459345  0.26881602     0.01300
F1572       F  0.39838388  0.31951328  0.25005555    -0.13100
F1573       F  0.31140570  0.35969652  0.25795912    -0.13600
C1574       C  0.41162895  0.35490845  0.28525367     0.16200
C1575       C  0.43323405  0.36534723  0.28977091     0.25600
C1576       C  0.43954922  0.38555401  0.27781610    -0.40700
C1577       C  0.42279213  0.39655946  0.26351916     0.32600
C1578       C  0.40129725  0.38611513  0.25892694     0.14300
F1579       F  0.40643565  0.33474763  0.29606290    -0.13000
F1580       F  0.42816272  0.41644850  0.25225632    -0.13600
F1581       F  0.44888778  0.35442463  0.30389009    -0.15800
F1582       F  0.38650617  0.39615362  0.24327941    -0.14400
F1583       F  0.34993205  0.38315534  0.27137853    -0.14400
F1584       F  0.35927294  0.29577111  0.23726069    -0.15800
C1585       C  0.27503782  0.41963903  0.28238228     0.14200
C1586       C  0.29209890  0.42113514  0.29994298     0.01200
C1587       C  0.29846113  0.40128483  0.31244858     0.16200
C1588       C  0.28827111  0.38010964  0.30707020     0.25600
C1589       C  0.27141827  0.37843142  0.28900515    -0.40700
C1590       C  0.26482991  0.39867346  0.27696304     0.32600
C1591       C  0.30266197  0.44377932  0.30479904     0.01300
F1592       F  0.31496009  0.40231766  0.32945333    -0.13100
F1593       F  0.24892236  0.39829046  0.25937418    -0.13600
C1594       C  0.29635289  0.45579452  0.32489796     0.16200
C1595       C  0.29899869  0.47965983  0.32555170     0.25600
C1596       C  0.30775841  0.49161024  0.30605416    -0.40700
C1597       C  0.31738647  0.47914094  0.28761642     0.32600
C1598       C  0.31484131  0.45536698  0.28698733     0.14300
F1599       F  0.28498301  0.44492022  0.34257053    -0.13000
F1600       F  0.32624275  0.49030043  0.26870745    -0.13600
F1601       F  0.28967359  0.49134629  0.34358612    -0.15800
F1602       F  0.32179911  0.44398861  0.26773382    -0.14400
F1603       F  0.26824843  0.43868602  0.27029851    -0.14400
F1604       F  0.29511560  0.36130042  0.31947839    -0.15800
C1605       C  0.19855266  0.22014764  0.07078956     0.14200
C1606       C  0.19250527  0.23741232  0.08652146     0.01200
C1607       C  0.17292910  0.25134205  0.08170119     0.16200
C1608       C  0.16136016  0.24989419  0.06033987     0.25600
C1609       C  0.16920147  0.23453223  0.04340880    -0.40700
C1610       C  0.18704647  0.21879985  0.04924432     0.32600
C1611       C  0.20742637  0.24225189  0.10705072     0.01300
F1612       F  0.16577785  0.26718348  0.09725006    -0.13100
F1613       F  0.19505525  0.20384337  0.03321436    -0.13600
C1614       C  0.21803346  0.26388311  0.10930799     0.16200
C1615       C  0.22960609  0.26972773  0.12995466     0.25600
C1616       C  0.23054583  0.25405866  0.14866883    -0.40700
C1617       C  0.22149788  0.23185093  0.14565208     0.32600
C1618       C  0.21005308  0.22599101  0.12503898     0.14300
F1619       F  0.21613073  0.27973948  0.09189207    -0.13000
F1620       F  0.22211391  0.21639026  0.16352183    -0.13600
F1621       F  0.23790300  0.29130941  0.13241216    -0.15800
F1622       F  0.19995243  0.20506085  0.12339637    -0.14400
F1623       F  0.21679415  0.20584001  0.07547621    -0.14400
F1624       F  0.14357876  0.26470966  0.05545292    -0.15800
C1625       C  0.18388440  0.10175278  0.19603183     0.14200
C1626       C  0.16977281  0.11973665  0.20388340     0.01200
C1627       C  0.14671539  0.11519797  0.21113799     0.16200
C1628       C  0.13868082  0.09257881  0.21254471     0.25600
C1629       C  0.15363824  0.07441556  0.20666978    -0.40700
C1630       C  0.17605466  0.07922704  0.19781332     0.32600
C1631       C  0.18074697  0.14194904  0.20895717     0.01300
F1632       F  0.13291230  0.13236943  0.21905789    -0.13100
F1633       F  0.19153567  0.06201984  0.19389323    -0.13600
C1634       C  0.17440372  0.16194643  0.19678421     0.16200
C1635       C  0.18498986  0.18280784  0.20217248     0.25600
C1636       C  0.20192130  0.18404108  0.22016719    -0.40700
C1637       C  0.20809682  0.16375132  0.23230406     0.32600
C1638       C  0.19767244  0.14298972  0.22666167     0.14300
F1639       F  0.15807210  0.16123038  0.17959878    -0.13000
F1640       F  0.22369519  0.16393582  0.25017560    -0.13600
F1641       F  0.17851943  0.20174813  0.18976944    -0.15800
F1642       F  0.20368930  0.12382377  0.23895812    -0.14400
F1643       F  0.20617067  0.10586191  0.18887375    -0.14400
F1644       F  0.11721170  0.08824335  0.22173302    -0.15800
C1645       C  0.00152992  0.13618353  0.17220302     0.14200
C1646       C  0.98527908  0.14350894  0.15524596     0.01200
C1647       C  0.97131290  0.16278510  0.16001603     0.16200
C1648       C  0.97294607  0.17393234  0.18158972     0.25600
C1649       C  0.98812104  0.16570017  0.19927494    -0.40700
C1650       C  0.00280042  0.14686073  0.19391505     0.32600
C1651       C  0.98183452  0.12988912  0.13352452     0.01300
F1652       F  0.95525377  0.17021159  0.14416089    -0.13100
F1653       F  0.01758933  0.13772370  0.21008517    -0.13600
C1654       C  0.97439629  0.10701502  0.13520154     0.16200
C1655       C  0.97171277  0.09364812  0.11525580     0.25600
C1656       C  0.97654077  0.10267359  0.09276876    -0.40700
C1657       C  0.98347773  0.12588298  0.09109863     0.32600
C1658       C  0.98616873  0.13924324  0.11122375     0.14300
F1659       F  0.96961149  0.09752213  0.15636973    -0.13000
F1660       F  0.98844302  0.13555974  0.07007287    -0.13600
F1661       F  0.96428490  0.07173898  0.11815896    -0.15800
F1662       F  0.99387197  0.16111833  0.10896857    -0.14400
F1663       F  0.01582620  0.11809205  0.16797112    -0.14400
F1664       F  0.95952537  0.19271943  0.18512848    -0.15800
C1665       C  0.86972073  0.21908819  0.26699359     0.14200
C1666       C  0.88144943  0.22428726  0.24600829     0.01200
C1667       C  0.87199416  0.24110035  0.23106488     0.16200
C1668       C  0.85087829  0.25201889  0.23656877     0.25600
C1669       C  0.83864710  0.24644620  0.25725478    -0.40700
C1670       C  0.84853877  0.23011124  0.27261805     0.32600
C1671       C  0.90330145  0.21191316  0.23949118     0.01300
F1672       F  0.88271438  0.24624940  0.21057705    -0.13100
F1673       F  0.83700701  0.22375682  0.29230622    -0.13600
C1674       C  0.90274329  0.18840268  0.23454482     0.16200
C1675       C  0.92361238  0.17622295  0.23069217     0.25600
C1676       C  0.94535927  0.18739154  0.23141988    -0.40700
C1677       C  0.94576775  0.21121640  0.23491681     0.32600
C1678       C  0.92493543  0.22336642  0.23887054     0.14300
F1679       F  0.88199769  0.17709854  0.23426514    -0.13000
F1680       F  0.96657589  0.22229122  0.23678237    -0.13600
F1681       F  0.92274574  0.15323595  0.22777555    -0.15800
F1682       F  0.92604781  0.24601950  0.24370009    -0.14400
F1683       F  0.87859419  0.20297698  0.28183187    -0.14400
F1684       F  0.84201835  0.26770312  0.22123777    -0.15800
C1685       C  0.09404074  0.23648099  0.25846988     0.14200
C1686       C  0.09477383  0.21451209  0.24850634     0.01200
C1687       C  0.11669906  0.20433466  0.24445605     0.16200
C1688       C  0.13733090  0.21601529  0.24961574     0.25600
C1689       C  0.13666215  0.23814441  0.25895213    -0.40700
C1690       C  0.11486989  0.24822115  0.26362356     0.32600
C1691       C  0.07283069  0.20208789  0.24248397     0.01300
F1692       F  0.11820845  0.18342221  0.23453626    -0.13100
F1693       F  0.11375765  0.26978767  0.27202016    -0.13600
C1694       C  0.05549829  0.21246540  0.22833577     0.16200
C1695       C  0.03390820  0.20160479  0.22470652     0.25600
C1696       C  0.02939040  0.18010457  0.23500640    -0.40700
C1697       C  0.04752168  0.16885511  0.24727899     0.32600
C1698       C  0.06889051  0.17980937  0.25123455     0.14300
F1699       F  0.05917003  0.23348651  0.21868203    -0.13000
F1700       F  0.04386284  0.14781399  0.25692277    -0.13600
F1701       F  0.01674778  0.21300083  0.21290892    -0.15800
F1702       F  0.08508622  0.16921986  0.26501774    -0.14400
F1703       F  0.07315998  0.24665179  0.26302618    -0.14400
F1704       F  0.15818211  0.20597393  0.24470463    -0.15800
C1705       C  0.73136138  0.96092536  0.16868529     0.14200
C1706       C  0.74674822  0.94960627  0.18408993     0.01200
C1707       C  0.76727981  0.96081084  0.19124516     0.16200
C1708       C  0.77169421  0.98345802  0.18416040     0.25600
C1709       C  0.75572027  0.99519891  0.16964230    -0.40700
C1710       C  0.73577487  0.98352026  0.16154646     0.32600
C1711       C  0.74132319  0.92621156  0.19293495     0.01300
F1712       F  0.78237425  0.95023983  0.20621230    -0.13100
F1713       F  0.71990560  0.99445453  0.14764710    -0.13600
C1714       C  0.75475141  0.90761705  0.18555049     0.16200
C1715       C  0.75046851  0.88562757  0.19438778     0.25600
C1716       C  0.73283276  0.88166590  0.21125366    -0.40700
C1717       C  0.71896775  0.90029695  0.21828298     0.32600
C1718       C  0.72321724  0.92241513  0.20917840     0.14300
F1719       F  0.77227606  0.91082201  0.16988106    -0.13000
F1720       F  0.70222214  0.89736915  0.23479645    -0.13600
F1721       F  0.76385897  0.86812264  0.18649697    -0.15800
F1722       F  0.71036197  0.94032585  0.21695492    -0.14400
F1723       F  0.71175832  0.95025785  0.16101763    -0.14400
F1724       F  0.79039804  0.99453723  0.19325498    -0.15800
C1725       C  0.78356542  0.11684555  0.16438658     0.14200
C1726       C  0.78848673  0.12132397  0.18783932     0.01200
C1727       C  0.79393886  0.10305747  0.20301754     0.16200
C1728       C  0.79127015  0.08051082  0.19573947     0.25600
C1729       C  0.78346992  0.07593421  0.17304359    -0.40700
C1730       C  0.78109555  0.09419591  0.15700641     0.32600
C1731       C  0.78151120  0.14343651  0.19792862     0.01300
F1732       F  0.79862463  0.10708213  0.22577769    -0.13100
F1733       F  0.77302534  0.09024631  0.13519315    -0.13600
C1734       C  0.75988611  0.14475776  0.20945073     0.16200
C1735       C  0.75291439  0.16490886  0.22020728     0.25600
C1736       C  0.76749790  0.18430255  0.21972506    -0.40700
C1737       C  0.78907842  0.18307212  0.20766775     0.32600
C1738       C  0.79595415  0.16277418  0.19677939     0.14300
F1739       F  0.74535557  0.12638380  0.21009660    -0.13000
F1740       F  0.80374332  0.20132973  0.20674027    -0.13600
F1741       F  0.73155551  0.16552998  0.23056967    -0.15800
F1742       F  0.81674789  0.16191294  0.18537249    -0.14400
F1743       F  0.77815051  0.13431130  0.14947840    -0.14400
F1744       F  0.79255335  0.06338888  0.21192747    -0.15800
C1745       C  0.81642351  0.01580487  0.11659102     0.14200
C1746       C  0.83826992  0.02334477  0.12492960     0.01200
C1747       C  0.83961443  0.03153369  0.14780531     0.16200
C1748       C  0.81933808  0.03346874  0.16145922     0.25600
C1749       C  0.79720721  0.02782681  0.15238295    -0.40700
C1750       C  0.79609210  0.01819113  0.13007935     0.32600
C1751       C  0.85907007  0.02426591  0.10915009     0.01300
F1752       F  0.86039292  0.03871127  0.15658362    -0.13100
F1753       F  0.77511909  0.01220605  0.12082679    -0.13600
C1754       C  0.85781573  0.03688395  0.08814816     0.16200
C1755       C  0.87702255  0.03792596  0.07301378     0.25600
C1756       C  0.89809851  0.02633679  0.07844132    -0.40700
C1757       C  0.89956499  0.01411117  0.09973503     0.32600
C1758       C  0.88025756  0.01310455  0.11492919     0.14300
F1759       F  0.83805055  0.04874519  0.08251482    -0.13000
F1760       F  0.91946572  0.00259597  0.10558127    -0.13600
F1761       F  0.87516855  0.05090488  0.05329187    -0.15800
F1762       F  0.88211538  0.00081540  0.13507656    -0.14400
F1763       F  0.81470668  0.00664267  0.09506754    -0.14400
F1764       F  0.82136820  0.04094234  0.18355896    -0.15800
C1765       C  0.06713557  0.79263666  0.14777580     0.14200
C1766       C  0.07100780  0.79891389  0.17100716     0.01200
C1767       C  0.05264711  0.80921185  0.18339656     0.16200
C1768       C  0.03057027  0.81240214  0.17304531     0.25600
C1769       C  0.02631593  0.80498045  0.15023020    -0.40700
C1770       C  0.04495323  0.79543483  0.13757522     0.32600
C1771       C  0.09409106  0.79450468  0.18234605     0.01300
F1772       F  0.05594817  0.81565996  0.20577200    -0.13100
F1773       F  0.04134184  0.78782509  0.11564357    -0.13600
C1774       C  0.11441303  0.80482496  0.17341084     0.16200
C1775       C  0.13603754  0.80140533  0.18442003     0.25600
C1776       C  0.13796187  0.78720612  0.20442433    -0.40700
C1777       C  0.11778641  0.77623343  0.21293670     0.32600
C1778       C  0.09596439  0.78008153  0.20215532     0.14300
F1779       F  0.11320099  0.81883093  0.15437633    -0.13000
F1780       F  0.11900657  0.76265793  0.23226832    -0.13600
F1781       F  0.15518596  0.81215713  0.17553793    -0.15800
F1782       F  0.07661216  0.76979400  0.21111027    -0.14400
F1783       F  0.08451675  0.78264381  0.13536693    -0.14400
F1784       F  0.01290058  0.82110112  0.18600124    -0.15800
C1785       C  0.87329220  0.81082149  0.21719036     0.14200
C1786       C  0.88213465  0.79569849  0.20057504     0.01200
C1787       C  0.87111457  0.77430339  0.19792953     0.16200
C1788       C  0.85078335  0.76875330  0.21061980     0.25600
C1789       C  0.84109707  0.78454099  0.22617340    -0.40700
C1790       C  0.85308147  0.80530119  0.22985179     0.32600
C1791       C  0.90253164  0.80232694  0.18572010     0.01300
F1792       F  0.87978266  0.75897401  0.18261221    -0.13100
F1793       F  0.84454477  0.82081013  0.24507204    -0.13600
C1794       C  0.92438180  0.80735924  0.19577706     0.16200
C1795       C  0.94415919  0.81089731  0.18172915     0.25600
C1796       C  0.94249723  0.80959263  0.15733576    -0.40700
C1797       C  0.92034231  0.80610594  0.14723337     0.32600
C1798       C  0.90050721  0.80273335  0.16128983     0.14300
F1799       F  0.92697409  0.80717131  0.21927026    -0.13000
F1800       F  0.91820500  0.80454324  0.12377140    -0.13600
F1801       F  0.96538595  0.81316290  0.19210548    -0.15800
F1802       F  0.87939688  0.79911972  0.15106913    -0.14400
F1803       F  0.88348159  0.83153356  0.22027992    -0.14400
F1804       F  0.83970540  0.74869262  0.20645842    -0.15800
C1805       C  0.98117477  0.88203287  0.13824767     0.14200
C1806       C  0.98582395  0.88508993  0.11424376     0.01200
C1807       C  0.99007751  0.86547185  0.10090693     0.16200
C1808       C  0.98991269  0.84356291  0.11117372     0.25600
C1809       C  0.98528568  0.84045924  0.13509429    -0.40700
C1810       C  0.98079980  0.85991042  0.14852374     0.32600
C1811       C  0.98628002  0.90840860  0.10272919     0.01300
F1812       F  0.99381724  0.86745458  0.07763302    -0.13100
F1813       F  0.97623101  0.85749230  0.17157842    -0.13600
C1814       C  0.00593922  0.91538410  0.08960851     0.16200
C1815       C  0.00552600  0.93579821  0.07635774     0.25600
C1816       C  0.98564416  0.95010547  0.07618940    -0.40700
C1817       C  0.96637603  0.94380412  0.09016721     0.32600
C1818       C  0.96663104  0.92313136  0.10319925     0.14300
F1819       F  0.02560134  0.90224221  0.08946185    -0.13000
F1820       F  0.94678595  0.95704165  0.09019966    -0.13600
F1821       F  0.02465473  0.94161806  0.06358109    -0.15800
F1822       F  0.94720247  0.91696923  0.11533912    -0.14400
F1823       F  0.97740974  0.90047945  0.15183874    -0.14400
F1824       F  0.99377731  0.82514419  0.09754810    -0.15800
C1825       C  0.18117185  0.96090593  0.82607094     0.14200
C1826       C  0.19574525  0.94275273  0.83341479     0.01200
C1827       C  0.21157057  0.94625098  0.85179697     0.16200
C1828       C  0.21400640  0.96800463  0.86142256     0.25600
C1829       C  0.20042315  0.98654957  0.85305920    -0.40700
C1830       C  0.18351532  0.98261929  0.83573731     0.32600
C1831       C  0.19643461  0.92121923  0.82001593     0.01300
F1832       F  0.22603272  0.92910482  0.85911165    -0.13100
F1833       F  0.17104555  0.00025656  0.82630026    -0.13600
C1834       C  0.20242328  0.92192729  0.79628243     0.16200
C1835       C  0.20385377  0.90179120  0.78345471     0.25600
C1836       C  0.19973144  0.88036735  0.79420321    -0.40700
C1837       C  0.19365469  0.87974526  0.81806806     0.32600
C1838       C  0.19201828  0.89996503  0.83078788     0.14300
F1839       F  0.20771255  0.94217563  0.78567888    -0.13000
F1840       F  0.19014248  0.85951641  0.82944048    -0.13600
F1841       F  0.20937850  0.90333765  0.76051379    -0.15800
F1842       F  0.18628340  0.89875841  0.85370055    -0.14400
F1843       F  0.16563078  0.95792342  0.80845762    -0.14400
F1844       F  0.23085955  0.97134561  0.87774304    -0.15800
C1845       C  0.20139334  0.11113856  0.85103921     0.14200
C1846       C  0.19841269  0.11341137  0.82682210     0.01200
C1847       C  0.19358061  0.09404171  0.81357191     0.16200
C1848       C  0.19402689  0.07236845  0.82396147     0.25600
C1849       C  0.19877823  0.06983777  0.84785471    -0.40700
C1850       C  0.20160861  0.08934280  0.86153257     0.32600
C1851       C  0.20350725  0.13521779  0.81475105     0.01300
F1852       F  0.19016678  0.09605220  0.79023496    -0.13100
F1853       F  0.20638779  0.08713120  0.88460991    -0.13600
C1854       C  0.22417136  0.13740127  0.80169128     0.16200
C1855       C  0.22887782  0.15757060  0.78921060     0.25600
C1856       C  0.21316218  0.17621445  0.79003207    -0.40700
C1857       C  0.19263654  0.17395367  0.80373784     0.32600
C1858       C  0.18776030  0.15352412  0.81565164     0.14300
F1859       F  0.23996801  0.11997500  0.80130987    -0.13000
F1860       F  0.17721310  0.19151367  0.80590240    -0.13600
F1861       F  0.24913745  0.15894789  0.77691307    -0.15800
F1862       F  0.16752027  0.15152160  0.82789931    -0.14400
F1863       F  0.20597141  0.12978223  0.86411263    -0.14400
F1864       F  0.19202955  0.05368337  0.81030863    -0.15800
C1865       C  0.14667452  0.02472957  0.90522808     0.14200
C1866       C  0.12753788  0.03575385  0.89432949     0.01200
C1867       C  0.12971054  0.04284309  0.87092921     0.16200
C1868       C  0.15082145  0.03958157  0.85891105     0.25600
C1869       C  0.17016669  0.02915615  0.87004270    -0.40700
C1870       C  0.16772158  0.02147660  0.89321378     0.32600
C1871       C  0.10565536  0.04024431  0.90765356     0.01300
F1872       F  0.11168086  0.05374256  0.85996708    -0.13100
F1873       F  0.18619392  0.01179110  0.90459348    -0.13600
C1874       C  0.10660073  0.05233834  0.92861922     0.16200
C1875       C  0.08648887  0.05507082  0.94222019     0.25600
C1876       C  0.06486746  0.04572161  0.93519152    -0.40700
C1877       C  0.06372812  0.03450822  0.91367567     0.32600
C1878       C  0.08390822  0.03181247  0.90005430     0.14300
F1879       F  0.12716029  0.06132620  0.93610229    -0.13000
F1880       F  0.04343143  0.02481890  0.90648101    -0.13600
F1881       F  0.08831225  0.06660545  0.96250493    -0.15800
F1882       F  0.08241687  0.01986584  0.88001955    -0.14400
F1883       F  0.14508809  0.01736145  0.92769221    -0.14400
F1884       F  0.15231829  0.04673537  0.83644586    -0.15800
C1885       C  0.86724934  0.82719171  0.78837802     0.14200
C1886       C  0.86726419  0.84838747  0.79952885     0.01200
C1887       C  0.84621809  0.85720210  0.80816265     0.16200
C1888       C  0.82514341  0.84549922  0.80481748     0.25600
C1889       C  0.82468558  0.82483647  0.79224565    -0.40700
C1890       C  0.84623100  0.81548958  0.78476633     0.32600
C1891       C  0.88866599  0.86252767  0.79933787     0.01300
F1892       F  0.84600639  0.87765615  0.81908298    -0.13100
F1893       F  0.84704271  0.79543405  0.77313821    -0.13600
C1894       C  0.89016641  0.88110970  0.78369797     0.16200
C1895       C  0.91150010  0.89225310  0.78021307     0.25600
C1896       C  0.93181285  0.88467874  0.79199036    -0.40700
C1897       C  0.92977280  0.86746242  0.80926513     0.32600
C1898       C  0.90832279  0.85631763  0.81275909     0.14300
F1899       F  0.87142342  0.88718440  0.77034844    -0.13000
F1900       F  0.94893407  0.85980788  0.82107634    -0.13600
F1901       F  0.91272669  0.90929176  0.76393691    -0.15800
F1902       F  0.90707335  0.83855237  0.82818212    -0.14400
F1903       F  0.88747141  0.81847800  0.77969843    -0.14400
F1904       F  0.80514847  0.85508643  0.81301857    -0.15800
C1905       C  0.03536607  0.84039380  0.78293821     0.14200
C1906       C  0.05489649  0.84964300  0.77124643     0.01200
C1907       C  0.05491953  0.87309010  0.76536457     0.16200
C1908       C  0.03538913  0.88678733  0.77010200     0.25600
C1909       C  0.01555128  0.87742093  0.78105156    -0.40700
C1910       C  0.01585094  0.85413438  0.78772070     0.32600
C1911       C  0.07546718  0.83507705  0.76557665     0.01300
F1912       F  0.07364842  0.88261344  0.75441634    -0.13100
F1913       F  0.99637496  0.84417637  0.79685060    -0.13600
C1914       C  0.08411198  0.83379721  0.74264229     0.16200
C1915       C  0.10531837  0.82243300  0.73802298     0.25600
C1916       C  0.11801236  0.81186666  0.75624222    -0.40700
C1917       C  0.10829415  0.81184185  0.77888076     0.32600
C1918       C  0.08745732  0.82345823  0.78348129     0.14300
F1919       F  0.07233481  0.84413498  0.72481869    -0.13000
F1920       F  0.11954043  0.80140151  0.79698956    -0.13600
F1921       F  0.11417275  0.82318052  0.71611750    -0.15800
F1922       F  0.07976163  0.82451071  0.80580179    -0.14400
F1923       F  0.03454588  0.81770882  0.78834293    -0.14400
F1924       F  0.03505908  0.90883912  0.76234122    -0.15800
C1925       C  0.96907209  0.93617559  0.83989932     0.14200
C1926       C  0.98353620  0.92786688  0.85799249     0.01200
C1927       C  0.99532091  0.90690874  0.85490878     0.16200
C1928       C  0.99266906  0.89454952  0.83420142     0.25600
C1929       C  0.97826527  0.90294812  0.81602336    -0.40700
C1930       C  0.96664186  0.92404831  0.81919887     0.32600
C1931       C  0.98659953  0.94149211  0.87965821     0.01300
F1932       F  0.00990767  0.89865915  0.87174592    -0.13100
F1933       F  0.95327227  0.93334569  0.80191586    -0.13600
C1934       C  0.98172584  0.93204106  0.90180554     0.16200
C1935       C  0.98337636  0.94545553  0.92189343     0.25600
C1936       C  0.98938981  0.96885898  0.92027315    -0.40700
C1937       C  0.99497595  0.97798749  0.89805088     0.32600
C1938       C  0.99373034  0.96447468  0.87814997     0.14300
F1939       F  0.97445463  0.91001186  0.90393987    -0.13000
F1940       F  0.00173240  0.00012353  0.89538269    -0.13600
F1941       F  0.97837074  0.93560038  0.94280761    -0.15800
F1942       F  0.99953294  0.97396063  0.85723619    -0.14400
F1943       F  0.95714264  0.95615346  0.84226633    -0.14400
F1944       F  0.00399099  0.87429321  0.83219912    -0.15800
C1945       C  0.90157777  0.19576224  0.77912499     0.14200
C1946       C  0.90515718  0.21927726  0.77516905     0.01200
C1947       C  0.92777635  0.22830953  0.77778091     0.16200
C1948       C  0.94670617  0.21388045  0.78334828     0.25600
C1949       C  0.94334433  0.19013775  0.78638068    -0.40700
C1950       C  0.92050458  0.18130987  0.78459072     0.32600
C1951       C  0.88505491  0.23433374  0.76895142     0.01300
F1952       F  0.93173832  0.25089133  0.77358301    -0.13100
F1953       F  0.91682704  0.15841986  0.78656476    -0.13600
C1954       C  0.87605136  0.24930602  0.78553097     0.16200
C1955       C  0.85514589  0.26117548  0.78124688     0.25600
C1956       C  0.84283332  0.25850934  0.76009502    -0.40700
C1957       C  0.85277083  0.24467571  0.74281655     0.32600
C1958       C  0.87368119  0.23258109  0.74728406     0.14300
F1959       F  0.88682191  0.25139607  0.80648770    -0.13000
F1960       F  0.84140015  0.24148445  0.72234999    -0.13600
F1961       F  0.84640521  0.27458336  0.79830283    -0.15800
F1962       F  0.88242240  0.21853042  0.73078502    -0.14400
F1963       F  0.87979428  0.18671531  0.77700335    -0.14400
F1964       F  0.96863085  0.22281819  0.78379430    -0.15800
C1965       C  0.06365508  0.17705873  0.75726548     0.14200
C1966       C  0.06898401  0.19974701  0.76303258     0.01200
C1967       C  0.05308295  0.21190504  0.77697856     0.16200
C1968       C  0.03176820  0.20189621  0.78406895     0.25600
C1969       C  0.02585255  0.17961748  0.77710836    -0.40700
C1970       C  0.04241005  0.16714483  0.76415567     0.32600
C1971       C  0.09177268  0.20998095  0.75551864     0.01300
F1972       F  0.05812898  0.23354734  0.78359313    -0.13100
F1973       F  0.03753961  0.14554686  0.75721365    -0.13600
C1974       C  0.09292510  0.22906192  0.74018988     0.16200
C1975       C  0.11478450  0.23855797  0.73375741     0.25600
C1976       C  0.13575965  0.22914690  0.74268118    -0.40700
C1977       C  0.13436375  0.20938782  0.75702456     0.32600
C1978       C  0.11276373  0.20009546  0.76348109     0.14300
F1979       F  0.07290363  0.23858015  0.73163498    -0.13000
F1980       F  0.15416401  0.19930311  0.76538581    -0.13600
F1981       F  0.11536252  0.25749890  0.71982907    -0.15800
F1982       F  0.11233700  0.18178273  0.77829804    -0.14400
F1983       F  0.07875923  0.16469345  0.74418139    -0.14400
F1984       F  0.01635309  0.21452816  0.79648411    -0.15800
C1985       C  0.97371360  0.17419471  0.85985246     0.14200
C1986       C  0.98592695  0.15417960  0.86659322     0.01200
C1987       C  0.99959864  0.14316591  0.84972967     0.16200
C1988       C  0.00033663  0.15131430  0.82657761     0.25600
C1989       C  0.98739810  0.17092515  0.81940065    -0.40700
C1990       C  0.97451254  0.18250765  0.83665443     0.32600
C1991       C  0.98363388  0.14389754  0.89067726     0.01300
F1992       F  0.01131895  0.12360283  0.85538688    -0.13100
F1993       F  0.96249432  0.20186295  0.83113735    -0.13600
C1994       C  0.96185185  0.13564374  0.89873843     0.16200
C1995       C  0.96029759  0.12289948  0.91969162     0.25600
C1996       C  0.98038437  0.11835466  0.93325590    -0.40700
C1997       C  0.00190063  0.12768211  0.92593948     0.32600
C1998       C  0.00353603  0.14023046  0.90487420     0.14300
F1999       F  0.94231778  0.13846993  0.88547484    -0.13000
F2000       F  0.02165354  0.12339686  0.93849886    -0.13600
F2001       F  0.93936212  0.11378356  0.92605961    -0.15800
F2002       F  0.02479757  0.14805860  0.89786732    -0.14400
F2003       F  0.96084362  0.18568160  0.87576389    -0.14400
F2004       F  0.01269318  0.13901362  0.81092098    -0.15800
C2005       C  0.78335150  0.96299474  0.79511313     0.14200
C2006       C  0.79349271  0.95018738  0.77709416     0.01200
C2007       C  0.81376787  0.95866036  0.76610680     0.16200
C2008       C  0.82266194  0.98015006  0.77178109     0.25600
C2009       C  0.81134441  0.99380213  0.78831865    -0.40700
C2010       C  0.79218893  0.98467130  0.80063779     0.32600
C2011       C  0.78257247  0.92854772  0.76896293     0.01300
F2012       F  0.82385689  0.94699176  0.74846058    -0.13100
F2013       F  0.78050867  0.99769275  0.81621662    -0.13600
C2014       C  0.75888335  0.92795982  0.76183240     0.16200
C2015       C  0.74863640  0.90737541  0.75463979     0.25600
C2016       C  0.76205620  0.88724978  0.75383528    -0.40700
C2017       C  0.78591364  0.88808042  0.76002010     0.32600
C2018       C  0.79599386  0.90839014  0.76775691     0.14300
F2019       F  0.74556678  0.94724052  0.76216579    -0.13000
F2020       F  0.79914690  0.86872642  0.75987218    -0.13600
F2021       F  0.72534771  0.90678360  0.74982293    -0.15800
F2022       F  0.81860424  0.90807064  0.77519804    -0.14400
F2023       F  0.76423126  0.95498291  0.80662666    -0.14400
F2024       F  0.84104253  0.98865604  0.75944808    -0.15800
C2025       C  0.79912732  0.16635821  0.81241676     0.14200
C2026       C  0.78686013  0.14668124  0.80576070     0.01200
C2027       C  0.76541353  0.14935285  0.79389092     0.16200
C2028       C  0.75668992  0.17115486  0.78827652     0.25600
C2029       C  0.76942481  0.19101249  0.79396690    -0.40700
C2030       C  0.79058546  0.18825638  0.80659272     0.32600
C2031       C  0.79712593  0.12338037  0.80916621     0.01300
F2032       F  0.75334090  0.13074808  0.78665355    -0.13100
F2033       F  0.80353907  0.20666770  0.81274320    -0.13600
C2034       C  0.78378704  0.10561797  0.81928897     0.16200
C2035       C  0.79077832  0.08275434  0.81701344     0.25600
C2036       C  0.81155870  0.07733685  0.80520653    -0.40700
C2037       C  0.82614416  0.09516936  0.79739327     0.32600
C2038       C  0.81894581  0.11800069  0.79918405     0.14300
F2039       F  0.76298055  0.11028690  0.82965318    -0.13000
F2040       F  0.84606147  0.09030274  0.78551247    -0.13600
F2041       F  0.77569723  0.06592925  0.82351142    -0.15800
F2042       F  0.83211103  0.13457562  0.78886095    -0.14400
F2043       F  0.81964806  0.16436196  0.82428689    -0.14400
F2044       F  0.73585855  0.17264475  0.77688097    -0.15800
C2045       C  0.89449994  0.04688525  0.88556136     0.14200
C2046       C  0.87609226  0.03085363  0.88543672     0.01200
C2047       C  0.87344394  0.01622376  0.90497736     0.16200
C2048       C  0.88882224  0.01765900  0.92411012     0.25600
C2049       C  0.90767346  0.03326951  0.92382354    -0.40700
C2050       C  0.91029082  0.04778898  0.90424835     0.32600
C2051       C  0.86019268  0.02935370  0.86467275     0.01300
F2052       F  0.85645661  0.99999390  0.90523852    -0.13100
F2053       F  0.92794919  0.06330478  0.90335666    -0.13600
C2054       C  0.86973686  0.02726815  0.84218829     0.16200
C2055       C  0.85526572  0.02785576  0.82245661     0.25600
C2056       C  0.83088401  0.03039046  0.82458959    -0.40700
C2057       C  0.82110775  0.03163244  0.84697492     0.32600
C2058       C  0.83560433  0.03110336  0.86685883     0.14300
F2059       F  0.89323460  0.02500034  0.83926227    -0.13000
F2060       F  0.79759741  0.03375228  0.84957654    -0.13600
F2061       F  0.86514861  0.02690426  0.80102310    -0.15800
F2062       F  0.82567711  0.03336564  0.88815805    -0.14400
F2063       F  0.89705757  0.06201912  0.86760511    -0.14400
F2064       F  0.88578061  0.00314952  0.94252500    -0.15800
C2065       C  0.21860183  0.88770172  0.08265036     0.14200
C2066       C  0.20658166  0.86699156  0.08586520     0.01200
C2067       C  0.19394207  0.85780101  0.06721269     0.16200
C2068       C  0.19473803  0.86833372  0.04513315     0.25600
C2069       C  0.20851216  0.88799519  0.04142637    -0.40700
C2070       C  0.21956012  0.89813640  0.06060823     0.32600
C2071       C  0.20919968  0.85401768  0.10802307     0.01300
F2072       F  0.18193376  0.83794410  0.07011527    -0.13100
F2073       F  0.23232374  0.91754323  0.05770465    -0.13600
C2074       C  0.19498541  0.85889400  0.12716520     0.16200
C2075       C  0.19854120  0.84753214  0.14853392     0.25600
C2076       C  0.21659482  0.83100654  0.15122242    -0.40700
C2077       C  0.23062974  0.82605311  0.13164565     0.32600
C2078       C  0.22692865  0.83746501  0.11035464     0.14300
F2079       F  0.17781910  0.87494192  0.12521598    -0.13000
F2080       F  0.24838345  0.81056752  0.13306628    -0.13600
F2081       F  0.18442028  0.85307736  0.16659856    -0.15800
F2082       F  0.24109312  0.83274793  0.09205337    -0.14400
F2083       F  0.23058847  0.89705971  0.10058068    -0.14400
F2084       F  0.18380754  0.85815682  0.02702178    -0.15800
C2085       C  0.20497139  0.82817240  0.88853905     0.14200
C2086       C  0.22255376  0.84294872  0.89633719     0.01200
C2087       C  0.24366683  0.84441264  0.88371290     0.16200
C2088       C  0.24660903  0.83220714  0.86298243     0.25600
C2089       C  0.22833495  0.81855211  0.85434434    -0.40700
C2090       C  0.20774603  0.81619545  0.86782618     0.32600
C2091       C  0.21853770  0.85695486  0.91744379     0.01300
F2092       F  0.26138304  0.85782059  0.89138639    -0.13100
F2093       F  0.18991759  0.80259304  0.86073889    -0.13600
C2094       C  0.21412012  0.84628274  0.93906944     0.16200
C2095       C  0.21074754  0.85936466  0.95902530     0.25600
C2096       C  0.21169915  0.88342050  0.95784339    -0.40700
C2097       C  0.21557888  0.89415275  0.93613349     0.32600
C2098       C  0.21875429  0.88103642  0.91606071     0.14300
F2099       F  0.21438993  0.82310685  0.94111518    -0.13000
F2100       F  0.21741393  0.91728178  0.93459651    -0.13600
F2101       F  0.20858183  0.84847720  0.97994677    -0.15800
F2102       F  0.22244276  0.89181650  0.89531199    -0.14400
F2103       F  0.18460937  0.82599501  0.90056597    -0.14400
F2104       F  0.26685919  0.83465462  0.85084658    -0.15800
C2105       C  0.11113803  0.96473812  0.99063314     0.14200
C2106       C  0.11100968  0.94153687  0.99749206     0.01200
C2107       C  0.08969398  0.93180369  0.00494404     0.16200
C2108       C  0.06918612  0.94524462  0.00635087     0.25600
C2109       C  0.06955627  0.96876810  0.00037728    -0.40700
C2110       C  0.09082572  0.97817642  0.99212772     0.32600
C2111       C  0.13358220  0.92837119  0.99841099     0.01300
F2112       F  0.08891041  0.90947620  0.01172455    -0.13100
F2113       F  0.09204823  0.00046729  0.98521270    -0.13600
C2114       C  0.15219509  0.93657563  0.01195120     0.16200
C2115       C  0.17404198  0.92567567  0.01196000     0.25600
C2116       C  0.17796218  0.90578711  0.99879202    -0.40700
C2117       C  0.15920860  0.89724582  0.98550514     0.32600
C2118       C  0.13722084  0.90842782  0.98532630     0.14300
F2119       F  0.14926286  0.95544479  0.02518277    -0.13000
F2120       F  0.16208467  0.87808964  0.97277642    -0.13600
F2121       F  0.19169556  0.93520381  0.02433916    -0.15800
F2122       F  0.11970235  0.90015409  0.97186136    -0.14400
F2123       F  0.13113857  0.97448821  0.98245852    -0.14400
F2124       F  0.04921582  0.93539602  0.01441899    -0.15800
C2125       C  0.75562896  0.22687017  0.07319015     0.14200
C2126       C  0.74460542  0.21671314  0.09271946     0.01200
C2127       C  0.73907857  0.19324506  0.09193096     0.16200
C2128       C  0.74260370  0.18084012  0.07152626     0.25600
C2129       C  0.75280628  0.19125085  0.05178542    -0.40700
C2130       C  0.76028960  0.21407778  0.05324267     0.32600
C2131       C  0.73916695  0.23035178  0.11393346     0.01300
F2132       F  0.72985658  0.18234730  0.11081185    -0.13100
F2133       F  0.77027702  0.22467429  0.03462102    -0.13600
C2134       C  0.71697489  0.22914819  0.12481225     0.16200
C2135       C  0.71294031  0.23994062  0.14619864     0.25600
C2136       C  0.73078537  0.25278498  0.15671939    -0.40700
C2137       C  0.75216459  0.25559611  0.14469239     0.32600
C2138       C  0.75648474  0.24415172  0.12397292     0.14300
F2139       F  0.69927851  0.21718304  0.11493356    -0.13000
F2140       F  0.76948511  0.26881932  0.15353231    -0.13600
F2141       F  0.69211836  0.23671974  0.15715037    -0.15800
F2142       F  0.77821831  0.24562469  0.11449582    -0.14400
F2143       F  0.76057882  0.24958448  0.07275437    -0.14400
F2144       F  0.73507006  0.15884549  0.07067661    -0.15800
C2145       C  0.75398890  0.22856524  0.94811705     0.14200
C2146       C  0.74769311  0.21781162  0.92725293     0.01200
C2147       C  0.74654526  0.19374098  0.92705465     0.16200
C2148       C  0.75042411  0.18084590  0.94753890     0.25600
C2149       C  0.75601533  0.19166496  0.96856972    -0.40700
C2150       C  0.75822886  0.21565405  0.96845999     0.32600
C2151       C  0.74274821  0.23170633  0.90572410     0.01300
F2152       F  0.74122826  0.18271298  0.90709631    -0.13100
F2153       F  0.76228334  0.22685469  0.98856315    -0.13600
C2154       C  0.75968090  0.24704362  0.89717450     0.16200
C2155       C  0.75597306  0.25918690  0.87634701     0.25600
C2156       C  0.73527598  0.25624797  0.86326713    -0.40700
C2157       C  0.71774952  0.24173977  0.87231809     0.32600
C2158       C  0.72144915  0.22959605  0.89338315     0.14300
F2159       F  0.78040779  0.24955669  0.90848967    -0.13000
F2160       F  0.69765188  0.23830377  0.86018699    -0.13600
F2161       F  0.77306979  0.27349661  0.86861279    -0.15800
F2162       F  0.70431935  0.21559269  0.90161091    -0.14400
F2163       F  0.75461000  0.25175368  0.94919014    -0.14400
F2164       F  0.74736792  0.15781906  0.94719117    -0.15800
C2165       C  0.83014063  0.16962065  0.00198945     0.14200
C2166       C  0.83202705  0.14714335  0.01114536     0.01200
C2167       C  0.81225523  0.13741814  0.02191241     0.16200
C2168       C  0.79093661  0.14935256  0.02277359     0.25600
C2169       C  0.78852008  0.17138669  0.01254531    -0.40700
C2170       C  0.80852205  0.18151172  0.00243512     0.32600
C2171       C  0.85403609  0.13318962  0.00887723     0.01300
F2172       F  0.81351034  0.11604278  0.03143151    -0.13100
F2173       F  0.80708291  0.20278463  0.99279533    -0.13600
C2174       C  0.87501742  0.13956249  0.01992615     0.16200
C2175       C  0.89496789  0.12527020  0.01929674     0.25600
C2176       C  0.89447473  0.10418734  0.00753086    -0.40700
C2177       C  0.87349897  0.09816641  0.99602862     0.32600
C2178       C  0.85366537  0.11246599  0.99667939     0.14300
F2179       F  0.87594978  0.15927289  0.03210130    -0.13000
F2180       F  0.87212996  0.07846454  0.98384983    -0.13600
F2181       F  0.91448561  0.13172510  0.03101287    -0.15800
F2182       F  0.83394228  0.10604494  0.98525488    -0.14400
F2183       F  0.84901040  0.17974043  0.99188071    -0.14400
F2184       F  0.77228649  0.13883253  0.03286363    -0.15800
C2185       C  0.81270161  0.82878346  0.13548570     0.14200
C2186       C  0.80602134  0.81888007  0.11445994     0.01200
C2187       C  0.78724084  0.80340359  0.11424042     0.16200
C2188       C  0.77507716  0.79802987  0.13470384     0.25600
C2189       C  0.78160014  0.80790620  0.15603233    -0.40700
C2190       C  0.80070977  0.82337269  0.15608921     0.32600
C2191       C  0.81910162  0.82355023  0.09270673     0.01300
F2192       F  0.78105458  0.79298401  0.09416716    -0.13100
F2193       F  0.80824833  0.83301951  0.17610662    -0.13600
C2194       C  0.84149653  0.81405274  0.08957881     0.16200
C2195       C  0.85113621  0.81287063  0.06724784     0.25600
C2196       C  0.83851641  0.82125859  0.04788772    -0.40700
C2197       C  0.81757966  0.83343739  0.05149684     0.32600
C2198       C  0.80783532  0.83440481  0.07378894     0.14300
F2199       F  0.85295557  0.80395141  0.10773369    -0.13000
F2200       F  0.80513489  0.84195544  0.03315848    -0.13600
F2201       F  0.87183500  0.80179056  0.06422467    -0.15800
F2202       F  0.78649533  0.84431065  0.07662919    -0.14400
F2203       F  0.83089944  0.84369202  0.13605131    -0.14400
F2204       F  0.75701212  0.78301399  0.13349528    -0.15800
C2205       C  0.78809437  0.77855675  0.89306729     0.14200
C2206       C  0.78875651  0.80081393  0.90216569     0.01200
C2207       C  0.77509170  0.81803167  0.89166377     0.16200
C2208       C  0.76136729  0.81331376  0.87222015     0.25600
C2209       C  0.76152808  0.79132563  0.86216231    -0.40700
C2210       C  0.77474363  0.77386851  0.87312269     0.32600
C2211       C  0.80295460  0.80598509  0.92311220     0.01300
F2212       F  0.77551937  0.83971449  0.89987816    -0.13100
F2213       F  0.77559085  0.75257053  0.86404033    -0.13600
C2214       C  0.82725369  0.80176083  0.92359320     0.16200
C2215       C  0.84002507  0.80455897  0.94421826     0.25600
C2216       C  0.82875716  0.81192942  0.96449154    -0.40700
C2217       C  0.80473499  0.81724741  0.96366263     0.32600
C2218       C  0.79198668  0.81447416  0.94312411     0.14300
F2219       F  0.83845339  0.79433497  0.90427581    -0.13000
F2220       F  0.79310012  0.82294620  0.98335762    -0.13600
F2221       F  0.86310163  0.79884345  0.94480956    -0.15800
F2222       F  0.76853817  0.81852414  0.94327252    -0.14400
F2223       F  0.80040993  0.76135284  0.90352548    -0.14400
F2224       F  0.74824085  0.83061099  0.86295411    -0.15800
C2225       C  0.85071634  0.88624165  0.98870700     0.14200
C2226       C  0.87434736  0.88907147  0.99507259     0.01200
C2227       C  0.88693598  0.87024605  0.00398323     0.16200
C2228       C  0.87606620  0.84903311  0.00686473     0.25600
C2229       C  0.85234514  0.84611133  0.00087155    -0.40700
C2230       C  0.83976914  0.86485711  0.99155411     0.32600
C2231       C  0.88603803  0.91164887  0.99329325     0.01300
F2232       F  0.90975100  0.87254505  0.01028480    -0.13100
F2233       F  0.81688261  0.86267109  0.98570252    -0.13600
C2234       C  0.88066974  0.92891510  0.00922265     0.16200
C2235       C  0.89401865  0.94902284  0.00980650     0.25600
C2236       C  0.91284926  0.95222506  0.99434558    -0.40700
C2237       C  0.91754869  0.93530361  0.97777334     0.32600
C2238       C  0.90442144  0.91509629  0.97741166     0.14300
F2239       F  0.86342812  0.92565267  0.02516778    -0.13000
F2240       F  0.93501762  0.93827238  0.96204892    -0.13600
F2241       F  0.88955829  0.96465105  0.02649827    -0.15800
F2242       F  0.91007524  0.89855802  0.96201016    -0.14400
F2243       F  0.83835031  0.90414371  0.97963954    -0.14400
F2244       F  0.88876453  0.83114984  0.01549469    -0.15800
loop_ 
_geom_bond_atom_site_label_1 
_geom_bond_atom_site_label_2 
_geom_bond_distance 
_geom_bond_site_symmetry_2 
_ccdc_geom_bond_type 
N1            C5   1.358   1_554  A
N1            C2   1.357       .  A
N1         C2229   1.443       .  S
C2            C3   1.381       .  A
C2         C2196   1.478       .  S
C3            C4   1.370   1_554  A
C3            H6   1.082       .  S
C4            C5   1.382       .  A
C4            H7   1.082       .  S
C5         C2216   1.474       .  S
N8           C12   1.368   1_554  A
N8            C9   1.366       .  A
N8         C2169   1.457       .  S
C9           C10   1.379       .  A
C9         C2129   1.486       .  S
C10          C11   1.364   1_554  A
C10          H13   1.082       .  S
C11          C12   1.383       .  A
C11          H14   1.083       .  S
C12        C2149   1.488       .  S
N15          C19   1.366       .  A
N15          C16   1.361   1_556  A
N15        C2116   1.455       .  S
C16          C17   1.379       .  A
C16        C2069   1.485       .  S
C17          C18   1.368   1_554  A
C17          H20   1.082       .  S
C18          C19   1.385       .  A
C18          H21   1.083       .  S
C19        C2096   1.482       .  S
N22          C26   1.364       .  A
N22          C23   1.361       .  A
N22        C2056   1.446       .  S
C23          C24   1.379       .  A
C23        C2036   1.475       .  S
C24          C25   1.364       .  A
C24          H27   1.082       .  S
C25          C26   1.382       .  A
C25          H28   1.083       .  S
C26        C2009   1.479   1_545  S
N29          C33   1.370   1_655  A
N29          C30   1.369       .  A
N29        C1989   1.465       .  S
C30          C31   1.381       .  A
C30        C1949   1.483       .  S
C31          C32   1.361       .  A
C31          H34   1.083       .  S
C32          C33   1.382   1_655  A
C32          H35   1.082       .  S
C33        C1969   1.494       .  S
N36          C40   1.364       .  A
N36          C37   1.362       .  A
N36        C1929   1.455       .  S
C37          C38   1.381       .  A
C37        C1896   1.482       .  S
C38          C39   1.363       .  A
C38          H41   1.082       .  S
C39          C40   1.382       .  A
C39          H42   1.083       .  S
C40        C1909   1.477   1_655  S
N43          C47   1.360       .  A
N43          C44   1.355       .  A
N43        C1869   1.446       .  S
C44          C45   1.380       .  A
C44        C1849   1.469       .  S
C45          C46   1.370       .  A
C45          H48   1.083       .  S
C46          C47   1.384       .  A
C46          H49   1.082       .  S
C47        C1829   1.482   1_545  S
N50          C54   1.364   1_655  A
N50          C51   1.364       .  A
N50        C1809   1.451       .  S
C51          C52   1.383       .  A
C51        C1796   1.484       .  S
C52          C53   1.367       .  A
C52          H55   1.083       .  S
C53          C54   1.380   1_655  A
C53          H56   1.083   1_655  S
C54        C1769   1.486       .  S
N57          C61   1.365       .  A
N57          C58   1.362       .  A
N57        C1749   1.450       .  S
C58          C59   1.379       .  A
C58        C1729   1.475       .  S
C59          C60   1.366       .  A
C59          H62   1.083       .  S
C60          C61   1.383       .  A
C60          H63   1.082       .  S
C61        C1709   1.483   1_545  S
N64          C68   1.366   1_655  A
N64          C65   1.369       .  A
N64        C1649   1.463       .  S
C65          C66   1.382       .  A
C65        C1676   1.483       .  S
C66          C67   1.363       .  A
C66          H69   1.083       .  S
C67          C68   1.380   1_655  A
C67          H70   1.083   1_655  S
C68        C1696   1.484       .  S
Zr71         O72   2.437       .  S
Zr71         O73   2.426       .  S
Zr71         O74   2.393       .  S
Zr71         O77   2.395       .  S
Zr71         O79   2.372       .  S
Zr71         O80   2.377       .  S
Zr71         O81   2.400       .  S
Zr71         O82   2.393       .  S
O72         H128   0.990       .  S
O72         H136   0.990       .  S
O73          C93   1.283       .  A
O74          C95   1.278       .  A
O75         Zr85   2.472       .  S
O75          C94   1.293       .  A
O76         Zr84   2.473       .  S
O76          C95   1.292       .  A
O77          C94   1.279       .  A
O78         Zr86   2.447       .  S
O78          C93   1.288       .  A
O79         Zr84   2.389       .  S
O79         Zr86   2.364       .  S
O80         Zr85   2.393       .  S
O80         Zr86   2.365       .  S
O80         H115   0.966       .  S
O81         Zr84   2.408       .  S
O81        Zr101   2.401       .  S
O81         H118   0.967       .  S
O82         Zr85   2.404       .  S
O82        Zr101   2.402       .  S
Zr83        O108   2.439       .  S
Zr83        O102   2.414       .  S
Zr83        O110   2.390       .  S
Zr83         O98   2.385       .  S
Zr83         O89   2.396       .  S
Zr83         O90   2.394       .  S
Zr83         O91   2.374       .  S
Zr83         O92   2.372       .  S
Zr84        O103   2.436       .  S
Zr84         O96   2.435       .  S
Zr84         O97   2.479       .  S
Zr84         O90   2.401       .  S
Zr84         O91   2.391       .  S
Zr85         O87   2.436       .  S
Zr85        O109   2.434       .  S
Zr85        O111   2.485       .  S
Zr85         O89   2.403       .  S
Zr85         O92   2.384       .  S
Zr86        O112   2.435       .  S
Zr86        O113   2.435       .  S
Zr86         O88   2.437       .  S
Zr86         O89   2.407       .  S
Zr86         O90   2.401       .  S
O87         H124   0.990       .  S
O88         H119   0.990       .  S
O88         H133   0.990       .  S
O90         H116   0.965       .  S
O91        Zr101   2.374       .  S
O92        Zr101   2.368       .  S
O92         H117   0.964       .  S
C93        C1589   1.499       .  S
C94        C1556   1.484       .  S
C95        C1569   1.471       .  S
O96         H132   0.990       .  S
O97          C99   1.293       .  A
O98          C99   1.276       .  A
C99        C1616   1.477       .  S
O100       Zr101   2.435       .  S
O100        H129   0.990       .  S
Zr101       O104   2.435       .  S
Zr101       O105   2.438       .  S
Zr101       O106   2.437       .  S
O102        C107   1.280       .  A
O103        H120   0.990       .  S
O103        H135   0.990       .  S
O104        H121   0.990       .  S
O105        H125   0.990       .  S
O105        H134   0.990       .  S
O106        C107   1.285       .  A
C107       C1636   1.489       .  S
O108        H127   0.990       .  S
O108        H131   0.990       .  S
O109        H123   0.990       .  S
O109        H130   0.990       .  S
O110        C114   1.277       .  A
O111        C114   1.294       .  A
O112        H122   0.990       .  S
O113        H126   0.990       .  S
C114       C1689   1.476       .  S
N137        C141   1.358       .  A
N137        C138   1.357       .  A
N137       C1509   1.443       .  S
C138        C139   1.381       .  A
C138       C1629   1.472       .  S
C139        C140   1.369       .  A
C139        H142   1.083       .  S
C140        C141   1.383       .  A
C140        H143   1.082       .  S
C141       C1536   1.481   1_545  S
Zr144       O145   2.437       .  S
Zr144       O146   2.420       .  S
Zr144       O147   2.395       .  S
Zr144       O150   2.405       .  S
Zr144       O152   2.375       .  S
Zr144       O153   2.373       .  S
Zr144       O154   2.399       .  S
Zr144       O155   2.395       .  S
O145        H201   0.990       .  S
O145        H209   0.990       .  S
O146        C166   1.282       .  A
O147        C168   1.279       .  A
O148       Zr158   2.473       .  S
O148        C167   1.292       .  A
O149       Zr157   2.479       .  S
O149        C168   1.293       .  A
O150        C167   1.280       .  A
O151       Zr159   2.443       .  S
O151        C166   1.286       .  A
O152       Zr157   2.395       .  S
O152       Zr159   2.369       .  S
O153       Zr158   2.389       .  S
O153       Zr159   2.365       .  S
O153        H188   0.966       .  S
O154       Zr157   2.405       .  S
O154       Zr174   2.402       .  S
O154        H191   0.968       .  S
O155       Zr158   2.403       .  S
O155       Zr174   2.404       .  S
Zr156       O181   2.437       .  S
Zr156       O175   2.426       .  S
Zr156       O183   2.395       .  S
Zr156       O171   2.385       .  S
Zr156       O162   2.397       .  S
Zr156       O163   2.401       .  S
Zr156       O164   2.371       .  S
Zr156       O165   2.373       .  S
Zr157       O176   2.437       .  S
Zr157       O169   2.434       .  S
Zr157       O170   2.484       .  S
Zr157       O163   2.404       .  S
Zr157       O164   2.390       .  S
Zr158       O160   2.433       .  S
Zr158       O182   2.435       .  S
Zr158       O184   2.480       .  S
Zr158       O162   2.399       .  S
Zr158       O165   2.391       .  S
Zr159       O185   2.435       .  S
Zr159       O186   2.435       .  S
Zr159       O161   2.435       .  S
Zr159       O162   2.408       .  S
Zr159       O163   2.401       .  S
O160        H197   0.990       .  S
O161        H192   0.990       .  S
O161        H206   0.990       .  S
O163        H189   0.966       .  S
O164       Zr174   2.371       .  S
O165       Zr174   2.368       .  S
O165        H190   0.966       .  S
C166       C1449   1.494       .  S
C167       C1469   1.475       .  S
C168       C1496   1.490       .  S
O169        H205   0.990       .  S
O170        C172   1.294       .  A
O171        C172   1.277       .  A
C172       C1529   1.478       .  S
O173       Zr174   2.436       .  S
O173        H202   0.990       .  S
Zr174       O177   2.435       .  S
Zr174       O178   2.439       .  S
Zr174       O179   2.439       .  S
O175        C180   1.283       .  A
O176        H193   0.990       .  S
O176        H208   0.990       .  S
O177        H194   0.990       .  S
O178        H198   0.990       .  S
O178        H207   0.990       .  S
O179        C180   1.285       .  A
C180       C2076   1.498       .  S
O181        H200   0.990       .  S
O181        H204   0.990       .  S
O182        H196   0.990       .  S
O182        H203   0.990       .  S
O183        C187   1.279       .  A
O184        C187   1.294       .  A
O185        H195   0.989       .  S
O186        H199   0.990       .  S
C187       C1776   1.484       .  S
Zr210       O211   2.437       .  S
Zr210       O212   2.410       .  S
Zr210       O213   2.397       .  S
Zr210       O216   2.392       .  S
Zr210       O218   2.377       .  S
Zr210       O219   2.379       .  S
Zr210       O220   2.393       .  S
Zr210       O221   2.391       .  S
O211        H267   0.990       .  S
O211        H275   0.990       .  S
O212        C232   1.280       .  A
O213        C234   1.279       .  A
O214       Zr224   2.483       .  S
O214        C233   1.294       .  A
O215       Zr223   2.487       .  S
O215        C234   1.295       .  A
O216        C233   1.279       .  A
O217       Zr225   2.449       .  S
O217        C232   1.288       .  A
O218       Zr223   2.385       .  S
O218       Zr225   2.370       .  S
O219       Zr224   2.386       .  S
O219       Zr225   2.368       .  S
O219        H254   0.968       .  S
O220       Zr223   2.400       .  S
O220       Zr240   2.399       .  S
O220        H257   0.967       .  S
O221       Zr224   2.404       .  S
O221       Zr240   2.403       .  S
Zr222       O247   2.439       .  S
Zr222       O241   2.439       .  S
Zr222       O249   2.405       .  S
Zr222       O237   2.392       .  S
Zr222       O228   2.401       .  S
Zr222       O229   2.406       .  S
Zr222       O230   2.373       .  S
Zr222       O231   2.374       .  S
Zr223       O242   2.435       .  S
Zr223       O235   2.435       .  S
Zr223       O236   2.463       .  S
Zr223       O229   2.404       .  S
Zr223       O230   2.398       .  S
Zr224       O226   2.434       .  S
Zr224       O248   2.437       .  S
Zr224       O250   2.472       .  S
Zr224       O228   2.402       .  S
Zr224       O231   2.396       .  S
Zr225       O251   2.434       .  S
Zr225       O252   2.436       .  S
Zr225       O227   2.438       .  S
Zr225       O228   2.409       .  S
Zr225       O229   2.401       .  S
O226        H263   0.990       .  S
O227        H258   0.990       .  S
O227        H272   0.990       .  S
O229        H255   0.965       .  S
O230       Zr240   2.365       .  S
O231       Zr240   2.373       .  S
O231        H256   0.967       .  S
C232       C1736   1.487       .  S
C233       C2136   1.491       .  S
C234       C1669   1.491       .  S
O235        H271   0.990       .  S
O236        C238   1.289       .  A
O237        C238   1.278       .  A
C238       C1389   1.467       .  S
O239       Zr240   2.438       .  S
O239        H268   0.990       .  S
Zr240       O243   2.436       .  S
Zr240       O244   2.437       .  S
Zr240       O245   2.432       .  S
O241        C246   1.285       .  A
O242        H259   0.990       .  S
O242        H274   0.990       .  S
O243        H260   0.990       .  S
O244        H264   0.990       .  S
O244        H273   0.990       .  S
O245        C246   1.284       .  A
C246       C1416   1.499       .  S
O247        H266   0.990       .  S
O247        H270   0.990       .  S
O248        H262   0.990       .  S
O248        H269   0.990       .  S
O249        C253   1.281       .  A
O250        C253   1.292       .  A
O251        H261   0.990       .  S
O252        H265   0.990       .  S
C253       C1429   1.488       .  S
Zr276       O277   2.438       .  S
Zr276       O278   2.424       .  S
Zr276       O279   2.397       .  S
Zr276       O282   2.383       .  S
Zr276       O284   2.371       .  S
Zr276       O285   2.375       .  S
Zr276       O286   2.397       .  S
Zr276       O287   2.401       .  S
O277        H333   0.991       .  S
O277        H341   0.990       .  S
O278        C298   1.282       .  A
O279        C300   1.278       .  A
O280       Zr290   2.490       .  S
O280        C299   1.296       .  A
O281       Zr289   2.484       .  S
O281        C300   1.294       .  A
O282        C299   1.277       .  A
O283       Zr291   2.443       .  S
O283        C298   1.287       .  A
O284       Zr289   2.395       .  S
O284       Zr291   2.374       .  S
O285       Zr290   2.394       .  S
O285       Zr291   2.361       .  S
O285        H320   0.966       .  S
O286       Zr289   2.400       .  S
O286       Zr306   2.403       .  S
O286        H323   0.966       .  S
O287       Zr290   2.404       .  S
O287       Zr306   2.406       .  S
Zr288       O313   2.438       .  S
Zr288       O307   2.414       .  S
Zr288       O315   2.397       .  S
Zr288       O303   2.393       .  S
Zr288       O294   2.392       .  S
Zr288       O295   2.394       .  S
Zr288       O296   2.375       .  S
Zr288       O297   2.378       .  S
Zr289       O308   2.436       .  S
Zr289       O301   2.433       .  S
Zr289       O302   2.490       .  S
Zr289       O295   2.405       .  S
Zr289       O296   2.387       .  S
Zr290       O292   2.435       .  S
Zr290       O314   2.436       .  S
Zr290       O316   2.492       .  S
Zr290       O294   2.403       .  S
Zr290       O297   2.395       .  S
Zr291       O317   2.436       .  S
Zr291       O318   2.437       .  S
Zr291       O293   2.435       .  S
Zr291       O294   2.401       .  S
Zr291       O295   2.400       .  S
O292        H329   0.990       .  S
O293        H324   0.990       .  S
O293        H338   0.990       .  S
O295        H321   0.967       .  S
O296       Zr306   2.368       .  S
O297       Zr306   2.374       .  S
O297        H322   0.965       .  S
C298       C1329   1.498       .  S
C299       C1356   1.490       .  S
C300       C1369   1.486       .  S
O301        H337   0.990       .  S
O302        C304   1.296       .  A
O303        C304   1.278       .  A
C304       C1789   1.489       .  S
O305       Zr306   2.436       .  S
O305        H334   0.990       .  S
Zr306       O309   2.435       .  S
Zr306       O310   2.437       .  S
Zr306       O311   2.448       .  S
O307        C312   1.281       .  A
O308        H325   0.990       .  S
O308        H340   0.990       .  S
O309        H326   0.990       .  S
O310        H330   0.990       .  S
O310        H339   0.990       .  S
O311        C312   1.287       .  A
C312       C2189   1.495       .  S
O313        H332   0.990       .  S
O313        H336   0.990       .  S
O314        H328   0.990       .  S
O314        H335   0.990       .  S
O315        C319   1.279       .  A
O316        C319   1.296       .  A
O317        H327   0.990       .  S
O318        H331   0.990       .  S
C319       C1716   1.493       .  S
N342        C346   1.366   1_554  A
N342        C343   1.363       .  A
N342       C1289   1.459       .  S
C343        C344   1.379       .  A
C343       C1609   1.481       .  S
C344        C345   1.363   1_554  A
C344        H347   1.082       .  S
C345        C346   1.383       .  A
C345        H348   1.083       .  S
C346       C1316   1.480       .  S
Zr349       O350   2.438       .  S
Zr349       O351   2.404       .  S
Zr349       O352   2.395       .  S
Zr349       O355   2.395       .  S
Zr349       O357   2.374       .  S
Zr349       O358   2.375       .  S
Zr349       O359   2.396       .  S
Zr349       O360   2.395       .  S
O350        H406   0.991       .  S
O350        H414   0.990       .  S
O351        C371   1.278       .  A
O352        C373   1.278       .  A
O353       Zr363   2.485       .  S
O353        C372   1.294       .  A
O354       Zr362   2.495       .  S
O354        C373   1.296       .  A
O355        C372   1.279       .  A
O356       Zr364   2.446       .  S
O356        C371   1.287       .  A
O357       Zr362   2.399       .  S
O357       Zr364   2.378       .  S
O358       Zr363   2.386       .  S
O358       Zr364   2.370       .  S
O358        H393   0.966       .  S
O359       Zr362   2.400       .  S
O359       Zr379   2.402       .  S
O359        H396   0.967       .  S
O360       Zr363   2.404       .  S
O360       Zr379   2.408       .  S
Zr361       O386   2.439       .  S
Zr361       O380   2.421       .  S
Zr361       O388   2.390       .  S
Zr361       O376   2.387       .  S
Zr361       O367   2.396       .  S
Zr361       O368   2.396       .  S
Zr361       O369   2.374       .  S
Zr361       O370   2.376       .  S
Zr362       O381   2.435       .  S
Zr362       O374   2.435       .  S
Zr362       O375   2.487       .  S
Zr362       O368   2.408       .  S
Zr362       O369   2.393       .  S
Zr363       O365   2.434       .  S
Zr363       O387   2.437       .  S
Zr363       O389   2.478       .  S
Zr363       O367   2.409       .  S
Zr363       O370   2.391       .  S
Zr364       O390   2.436       .  S
Zr364       O391   2.436       .  S
Zr364       O366   2.436       .  S
Zr364       O367   2.408       .  S
Zr364       O368   2.399       .  S
O365        H402   0.990       .  S
O366        H397   0.990       .  S
O366        H411   0.990       .  S
O368        H394   0.964       .  S
O369       Zr379   2.370       .  S
O370       Zr379   2.366       .  S
O370        H395   0.965       .  S
C371       C1856   1.489       .  S
C372       C1309   1.484       .  S
C373       C1976   1.494       .  S
O374        H410   0.990       .  S
O375        C377   1.295       .  A
O376        C377   1.277       .  A
C377       C1236   1.482       .  S
O378       Zr379   2.435       .  S
O378        H407   0.990       .  S
Zr379       O382   2.436       .  S
Zr379       O383   2.435       .  S
Zr379       O384   2.455       .  S
O380        C385   1.282       .  A
O381        H398   0.990       .  S
O381        H413   0.990       .  S
O382        H399   0.990       .  S
O383        H403   0.990       .  S
O383        H412   0.990       .  S
O384        C385   1.289       .  A
C385       C1249   1.491       .  S
O386        H405   0.990       .  S
O386        H409   0.990       .  S
O387        H401   0.990       .  S
O387        H408   0.990       .  S
O388        C392   1.278       .  A
O389        C392   1.292       .  A
O390        H400   0.990       .  S
O391        H404   0.990       .  S
C392       C1276   1.476       .  S
Zr415       O416   2.437       .  S
Zr415       O417   2.416       .  S
Zr415       O418   2.402       .  S
Zr415       O421   2.385       .  S
Zr415       O423   2.369       .  S
Zr415       O424   2.383       .  S
Zr415       O425   2.391       .  S
Zr415       O426   2.394       .  S
O416        H472   0.990       .  S
O416        H480   0.990       .  S
O417        C437   1.281       .  A
O418        C439   1.280       .  A
O419       Zr429   2.487       .  S
O419        C438   1.295       .  A
O420       Zr428   2.475       .  S
O420        C439   1.293       .  A
O421        C438   1.278       .  A
O422       Zr430   2.449       .  S
O422        C437   1.287       .  A
O423       Zr428   2.385       .  S
O423       Zr430   2.369       .  S
O424       Zr429   2.399       .  S
O424       Zr430   2.369       .  S
O424        H459   0.967       .  S
O425       Zr428   2.401       .  S
O425       Zr445   2.393       .  S
O425        H462   0.965       .  S
O426       Zr429   2.405       .  S
O426       Zr445   2.399       .  S
Zr427       O452   2.437       .  S
Zr427       O446   2.421       .  S
Zr427       O454   2.392       .  S
Zr427       O442   2.403       .  S
Zr427       O433   2.401       .  S
Zr427       O434   2.394       .  S
Zr427       O435   2.372       .  S
Zr427       O436   2.381       .  S
Zr428       O447   2.433       .  S
Zr428       O440   2.436       .  S
Zr428       O441   2.473       .  S
Zr428       O434   2.402       .  S
Zr428       O435   2.388       .  S
Zr429       O431   2.435       .  S
Zr429       O453   2.437       .  S
Zr429       O455   2.492       .  S
Zr429       O433   2.400       .  S
Zr429       O436   2.397       .  S
Zr430       O456   2.437       .  S
Zr430       O457   2.436       .  S
Zr430       O432   2.434       .  S
Zr430       O433   2.408       .  S
Zr430       O434   2.403       .  S
O431        H468   0.990       .  S
O432        H463   0.990       .  S
O432        H477   0.990       .  S
O434        H460   0.967       .  S
O435       Zr445   2.374       .  S
O436       Zr445   2.365       .  S
O436        H461   0.964       .  S
C437       C1836   1.490       .  S
C438       C1916   1.489       .  S
C439       C2089   1.493       .  S
O440        H476   0.990       .  S
O441        C443   1.293       .  A
O442        C443   1.280       .  A
C443       C1189   1.492       .  S
O444       Zr445   2.439       .  S
O444        H473   0.990       .  S
Zr445       O448   2.437       .  S
Zr445       O449   2.439       .  S
Zr445       O450   2.439       .  S
O446        C451   1.282       .  A
O447        H464   0.990       .  S
O447        H479   0.990       .  S
O448        H465   0.990       .  S
O449        H469   0.990       .  S
O449        H478   0.990       .  S
O450        C451   1.286       .  A
C451       C1216   1.494       .  S
O452        H471   0.990       .  S
O452        H475   0.990       .  S
O453        H467   0.990       .  S
O453        H474   0.990       .  S
O454        C458   1.278       .  A
O455        C458   1.295       .  A
O456        H466   0.990       .  S
O457        H470   0.990       .  S
C458       C1169   1.479       .  S
Zr481       O482   2.438       .  S
Zr481       O483   2.433       .  S
Zr481       O484   2.408       .  S
Zr481       O487   2.401       .  S
Zr481       O489   2.374       .  S
Zr481       O490   2.380       .  S
Zr481       O491   2.402       .  S
Zr481       O492   2.402       .  S
O482        H538   0.990       .  S
O482        H546   0.990       .  S
O483        C503   1.284       .  A
O484        C505   1.281       .  A
O485       Zr495   2.477       .  S
O485        C504   1.294       .  A
O486       Zr494   2.476       .  S
O486        C505   1.293       .  A
O487        C504   1.280       .  A
O488       Zr496   2.440       .  S
O488        C503   1.285       .  A
O489       Zr494   2.397       .  S
O489       Zr496   2.369       .  S
O490       Zr495   2.396       .  S
O490       Zr496   2.372       .  S
O490        H525   0.966       .  S
O491       Zr494   2.405       .  S
O491       Zr511   2.405       .  S
O491        H528   0.966       .  S
O492       Zr495   2.405       .  S
O492       Zr511   2.404       .  S
Zr493       O518   2.437       .  S
Zr493       O512   2.408       .  S
Zr493       O520   2.385       .  S
Zr493       O508   2.389       .  S
Zr493       O499   2.397       .  S
Zr493       O500   2.395       .  S
Zr493       O501   2.370       .  S
Zr493       O502   2.375       .  S
Zr494       O513   2.434       .  S
Zr494       O506   2.435       .  S
Zr494       O507   2.487       .  S
Zr494       O500   2.397       .  S
Zr494       O501   2.389       .  S
Zr495       O497   2.435       .  S
Zr495       O519   2.436       .  S
Zr495       O521   2.490       .  S
Zr495       O499   2.397       .  S
Zr495       O502   2.389       .  S
Zr496       O522   2.435       .  S
Zr496       O523   2.435       .  S
Zr496       O498   2.437       .  S
Zr496       O499   2.408       .  S
Zr496       O500   2.398       .  S
O497        H534   0.990       .  S
O498        H529   0.990       .  S
O498        H543   0.990       .  S
O500        H526   0.966       .  S
O501       Zr511   2.373       .  S
O502       Zr511   2.369       .  S
O502        H527   0.966       .  S
C503       C2029   1.499       .  S
C504       C1956   1.489       .  S
C505       C2156   1.491       .  S
O506        H542   0.990       .  S
O507        C509   1.295       .  A
O508        C509   1.277       .  A
C509       C1136   1.480       .  S
O510       Zr511   2.437       .  S
O510        H539   0.990       .  S
Zr511       O514   2.434       .  S
Zr511       O515   2.438       .  S
Zr511       O516   2.455       .  S
O512        C517   1.280       .  A
O513        H530   0.990       .  S
O513        H545   0.990       .  S
O514        H531   0.990       .  S
O515        H535   0.990       .  S
O515        H544   0.990       .  S
O516        C517   1.288       .  A
C517       C1149   1.498       .  S
O518        H537   0.990       .  S
O518        H541   0.990       .  S
O519        H533   0.990       .  S
O519        H540   0.990       .  S
O520        C524   1.276       .  A
O521        C524   1.295       .  A
O522        H532   0.990       .  S
O523        H536   0.990       .  S
C524       C1116   1.474       .  S
Zr547       O548   2.438       .  S
Zr547       O549   2.422       .  S
Zr547       O550   2.383       .  S
Zr547       O553   2.384       .  S
Zr547       O555   2.373       .  S
Zr547       O556   2.372       .  S
Zr547       O557   2.395       .  S
Zr547       O558   2.394       .  S
O548        H604   0.990       .  S
O548        H612   0.990       .  S
O549        C569   1.282       .  A
O550        C571   1.276       .  A
O551       Zr561   2.490       .  S
O551        C570   1.294       .  A
O552       Zr560   2.482       .  S
O552        C571   1.295       .  A
O553        C570   1.276       .  A
O554       Zr562   2.437       .  S
O554        C569   1.285       .  A
O555       Zr560   2.393       .  S
O555       Zr562   2.370       .  S
O556       Zr561   2.387       .  S
O556       Zr562   2.366       .  S
O556        H591   0.966       .  S
O557       Zr560   2.404       .  S
O557       Zr577   2.401       .  S
O557        H594   0.967       .  S
O558       Zr561   2.404       .  S
O558       Zr577   2.405       .  S
Zr559       O584   2.437       .  S
Zr559       O578   2.414       .  S
Zr559       O586   2.398       .  S
Zr559       O574   2.398       .  S
Zr559       O565   2.393       .  S
Zr559       O566   2.395       .  S
Zr559       O567   2.371       .  S
Zr559       O568   2.378       .  S
Zr560       O579   2.434       .  S
Zr560       O572   2.435       .  S
Zr560       O573   2.491       .  S
Zr560       O566   2.403       .  S
Zr560       O567   2.386       .  S
Zr561       O563   2.435       .  S
Zr561       O585   2.435       .  S
Zr561       O587   2.488       .  S
Zr561       O565   2.404       .  S
Zr561       O568   2.393       .  S
Zr562       O588   2.437       .  S
Zr562       O589   2.435       .  S
Zr562       O564   2.435       .  S
Zr562       O565   2.404       .  S
Zr562       O566   2.399       .  S
O563        H600   0.990       .  S
O564        H595   0.990       .  S
O564        H609   0.990       .  S
O566        H592   0.966       .  S
O567       Zr577   2.369       .  S
O568       Zr577   2.368       .  S
O568        H593   0.965       .  S
C569       C1889   1.494       .  S
C570       C2016   1.474       .  S
C571       C2209   1.490       .  S
O572        H608   0.990       .  S
O573        C575   1.296       .  A
O574        C575   1.279       .  A
C575       C1069   1.485       .  S
O576       Zr577   2.439       .  S
O576        H605   0.990       .  S
Zr577       O580   2.438       .  S
Zr577       O581   2.438       .  S
Zr577       O582   2.446       .  S
O578        C583   1.281       .  A
O579        H596   0.990       .  S
O579        H611   0.990       .  S
O580        H597   0.990       .  S
O581        H601   0.990       .  S
O581        H610   0.990       .  S
O582        C583   1.287       .  A
C583       C1089   1.495       .  S
O584        H603   0.990       .  S
O584        H607   0.990       .  S
O585        H599   0.990       .  S
O585        H606   0.990       .  S
O586        C590   1.280       .  A
O587        C590   1.296       .  A
O588        H598   0.990       .  S
O589        H602   0.990       .  S
C590       C1049   1.490       .  S
N613        C617   1.364       .  A
N613        C614   1.362       .  A
N613       C1029   1.451       .  S
C614        C615   1.381       .  A
C614       C1096   1.487       .  S
C615        C616   1.368       .  A
C615        H618   1.082       .  S
C616        C617   1.383       .  A
C616        H619   1.083       .  S
C617       C1196   1.484       .  S
N620        C624   1.356       .  A
N620        C621   1.359       .  A
N620       C1016   1.436       .  S
C621        C622   1.383       .  A
C621       C1256   1.483       .  S
C622        C623   1.372       .  A
C622        H625   1.082       .  S
C623        C624   1.380       .  A
C623        H626   1.082       .  S
C624       C1209   1.475       .  S
N627        C631   1.363       .  A
N627        C628   1.363       .  A
N627        C996   1.453       .  S
C628        C629   1.380       .  A
C628       C1129   1.482       .  S
C629        C630   1.365       .  A
C629        H632   1.082       .  S
C630        C631   1.382       .  A
C630        H633   1.083       .  S
C631       C1269   1.479       .  S
N634        C638   1.368       .  A
N634        C635   1.365       .  A
N634        C969   1.455       .  S
C635        C636   1.379       .  A
C635       C1156   1.480       .  S
C636        C637   1.363       .  A
C636        H639   1.083       .  S
C637        C638   1.381       .  A
C637        H640   1.083       .  S
C638       C1076   1.481       .  S
N641        C645   1.364       .  A
N641        C642   1.364       .  A
N641        C956   1.456       .  S
C642        C643   1.381       .  A
C642       C1436   1.477       .  S
C643        C644   1.362       .  A
C643        H646   1.083       .  S
C644        C645   1.381       .  A
C644        H647   1.083       .  S
C645       C1576   1.481       .  S
N648        C652   1.365       .  A
N648        C649   1.362       .  A
N648        C929   1.445       .  S
C649        C650   1.380       .  A
C649       C1409   1.479       .  S
C650        C651   1.367       .  A
C650        H653   1.083       .  S
C651        C652   1.380       .  A
C651        H654   1.082       .  S
C652       C1376   1.479       .  S
N655        C659   1.367       .  A
N655        C656   1.364       .  A
N655        C909   1.455       .  S
C656        C657   1.380       .  A
C656       C1349   1.484       .  S
C657        C658   1.364       .  A
C657        H660   1.082       .  S
C658        C659   1.383       .  A
C658        H661   1.083       .  S
C659       C1489   1.487       .  S
N662        C666   1.368       .  A
N662        C663   1.364       .  A
N662        C889   1.453       .  S
C663        C664   1.380       .  A
C663       C1596   1.478       .  S
C664        C665   1.364       .  A
C664        H667   1.083       .  S
C665        C666   1.381       .  A
C665        H668   1.083       .  S
C666       C1476   1.478       .  S
N669        C673   1.365       .  A
N669        C670   1.361       .  A
N669        C869   1.449       .  S
C670        C671   1.380       .  A
C670       C1336   1.479       .  S
C671        C672   1.368       .  A
C671        H674   1.083       .  S
C672        C673   1.383       .  A
C672        H675   1.082       .  S
C673       C1056   1.486       .  S
N676        C680   1.365       .  A
N676        C677   1.364       .  A
N676        C849   1.460       .  S
C677        C678   1.380       .  A
C677       C1396   1.483       .  S
C678        C679   1.364       .  A
C678        H681   1.082       .  S
C679        C680   1.382       .  A
C679        H682   1.083       .  S
C680       C1109   1.480       .  S
N683        C687   1.361       .  A
N683        C684   1.357       .  A
N683        C829   1.444       .  S
C684        C685   1.380       .  A
C684       C1456   1.473       .  S
C685        C686   1.369       .  A
C685        H688   1.082       .  S
C686        C687   1.382       .  A
C686        H689   1.082       .  S
C687       C1176   1.481       .  S
N690        C694   1.364       .  A
N690        C691   1.360       .  A
N690        C809   1.451       .  S
C691        C692   1.380       .  A
C691       C1549   1.483       .  S
C692        C693   1.370       .  A
C692        H695   1.082       .  S
C693        C694   1.384       .  A
C693        H696   1.083       .  S
C694       C1229   1.488       .  S
O697       Zr733   2.461   1_566  S
O697        C708   1.296       .  A
O698       Zr732   2.440       .  S
O698        C709   1.292   1_545  A
O699       Zr705   2.469   1_556  S
O699        C710   1.298       .  A
O700       Zr705   2.457       .  S
O700        C711   1.296       .  A
O701       Zr735   2.480   1_565  S
O701        C711   1.299       .  A
O702       Zr734   2.437       .  S
O702        C710   1.293   1_545  A
O703       Zr705   2.474   1_455  S
O703        C709   1.298       .  A
O704       Zr705   2.437   1_556  S
O704        C708   1.292       .  A
Zr705       O706   2.347   1_665  S
Zr705       O707   2.349   1_564  S
Zr705       O715   2.364   1_565  S
Zr705       O713   2.337   1_664  S
O706       Zr732   2.340       .  S
O706       Zr735   2.351   1_455  S
O707       Zr733   2.342   1_556  S
O707       Zr734   2.337       .  S
C708       C2236   1.482       .  S
C709       C2109   1.501       .  S
C710       C1936   1.502       .  S
C711       C1816   1.496       .  S
H712        O713   0.965       .  S
O713       Zr732   2.338   1_556  S
O713       Zr734   2.344   1_455  S
H714        O715   0.966   1_565  S
O715       Zr733   2.353       .  S
O715       Zr735   2.349       .  S
O716       Zr732   2.432       .  S
O716        C739   1.291       .  A
O717       Zr733   2.458       .  S
O717        C740   1.296       .  A
O718       Zr734   2.464   1_455  S
O718        C741   1.297       .  A
O719       Zr735   2.458   1_455  S
O719        C742   1.296       .  A
O720       Zr735   2.463       .  S
O720        C743   1.296       .  A
O721       Zr734   2.459       .  S
O721        C744   1.296       .  A
O722       Zr736   2.494   1_556  S
O722        C745   1.302       .  A
O723       Zr736   2.487       .  S
O723        C746   1.302       .  A
O724       Zr734   2.434       .  S
O724        C745   1.291       .  A
O725       Zr735   2.453       .  S
O725        C746   1.296       .  A
O726       Zr732   2.424   1_556  S
O726        C741   1.289       .  A
O727       Zr733   2.451   1_556  S
O727        C744   1.294       .  A
O728       Zr733   2.442       .  S
O728        C743   1.293       .  A
O729       Zr732   2.433       .  S
O729        C742   1.291       .  A
O730       Zr736   2.478   1_455  S
O730        C739   1.300       .  A
O731       Zr736   2.474       .  S
O731        C740   1.299       .  A
Zr732       O738   2.342   1_554  S
Zr732       O750   2.339       .  S
Zr733       O737   2.349       .  S
Zr733       O748   2.353   1_554  S
Zr734       O738   2.343   1_655  S
Zr734       O748   2.350       .  S
Zr735       O737   2.354       .  S
Zr735       O750   2.359   1_655  S
Zr736       O737   2.364       .  S
Zr736       O738   2.349   1_654  S
Zr736       O750   2.360   1_655  S
Zr736       O748   2.363   1_554  S
C739       C1296   1.503       .  S
C740       C2176   1.506       .  S
C741       C1876   1.488       .  S
C742       C1516   1.484       .  S
C743       C1756   1.494       .  S
C744       C2049   1.495       .  S
C745       C1996   1.490       .  S
C746       C1656   1.512       .  S
H747        O748   0.965       .  S
H749        O750   0.965       .  S
O751       Zr787   2.474       .  S
O751        C762   1.299       .  A
O752       Zr786   2.488       .  S
O752        C763   1.302       .  A
O753       Zr759   2.420       .  S
O753        C764   1.288       .  A
O754       Zr759   2.434       .  S
O754        C765   1.291       .  A
O755       Zr789   2.476       .  S
O755        C765   1.298       .  A
O756       Zr788   2.460       .  S
O756        C764   1.296       .  A
O757       Zr759   2.421       .  S
O757        C763   1.289       .  A
O758       Zr759   2.445       .  S
O758        C762   1.293       .  A
Zr759       O760   2.341       .  S
Zr759       O761   2.334       .  S
Zr759       O769   2.336       .  S
Zr759       O767   2.355       .  S
O760       Zr786   2.363       .  S
O760       Zr789   2.349       .  S
O761       Zr787   2.336       .  S
O761       Zr788   2.339       .  S
C762       C1036   1.503       .  S
C763        C989   1.498       .  S
C764       C1009   1.475       .  S
C765        C976   1.498       .  S
H766        O767   0.966       .  S
O767       Zr786   2.356       .  S
O767       Zr788   2.351       .  S
H768        O769   0.964       .  S
O769       Zr787   2.346       .  S
O769       Zr789   2.349       .  S
O770       Zr786   2.487       .  S
O770        C793   1.302       .  A
O771       Zr787   2.455       .  S
O771        C794   1.295       .  A
O772       Zr788   2.449       .  S
O772        C795   1.294       .  A
O773       Zr789   2.469       .  S
O773        C796   1.299       .  A
O774       Zr789   2.470       .  S
O774        C797   1.298       .  A
O775       Zr788   2.444       .  S
O775        C798   1.294       .  A
O776       Zr790   2.471       .  S
O776        C799   1.298       .  A
O777       Zr790   2.458       .  S
O777        C800   1.296       .  A
O778       Zr788   2.451       .  S
O778        C799   1.295       .  A
O779       Zr789   2.444       .  S
O779        C800   1.294       .  A
O780       Zr786   2.481       .  S
O780        C795   1.300       .  A
O781       Zr787   2.449       .  S
O781        C798   1.294       .  A
O782       Zr787   2.439       .  S
O782        C797   1.293       .  A
O783       Zr786   2.460       .  S
O783        C796   1.297       .  A
O784       Zr790   2.439       .  S
O784        C793   1.293       .  A
O785       Zr790   2.460       .  S
O785        C794   1.296       .  A
Zr786       O792   2.350       .  S
Zr786       O804   2.364       .  S
Zr787       O791   2.350       .  S
Zr787       O802   2.349       .  S
Zr788       O792   2.343       .  S
Zr788       O802   2.348       .  S
Zr789       O791   2.355       .  S
Zr789       O804   2.364       .  S
Zr790       O791   2.345       .  S
Zr790       O792   2.347       .  S
Zr790       O804   2.358       .  S
Zr790       O802   2.344       .  S
C793        C949   1.506       .  S
C794        C916   1.491       .  S
C795        C816   1.490       .  S
C796        C856   1.506       .  S
C797        C876   1.495       .  S
C798        C836   1.487       .  S
C799        C896   1.506       .  S
C800        C936   1.491       .  S
H801        O802   0.966       .  S
H803        O804   0.965       .  S
C805        C806   1.413       .  A
C805        C810   1.412       .  A
C805        F823   1.357       .  S
C806        C807   1.407       .  A
C806        C811   1.502       .  S
C807        C808   1.402       .  A
C807        F812   1.358       .  S
C808        C809   1.412       .  A
C808        F824   1.358       .  S
C809        C810   1.405       .  A
C810        F813   1.356       .  S
C811        C814   1.412       .  A
C811        C818   1.408       .  A
C814        C815   1.410       .  A
C814        F819   1.358       .  S
C815        C816   1.409       .  A
C815        F821   1.358       .  S
C816        C817   1.405       .  A
C817        C818   1.406       .  A
C817        F820   1.357       .  S
C818        F822   1.357       .  S
C825        C826   1.406       .  A
C825        C830   1.397       .  A
C825        F843   1.358       .  S
C826        C827   1.410       .  A
C826        C831   1.491       .  S
C827        C828   1.407       .  A
C827        F832   1.357       .  S
C828        C829   1.406       .  A
C828        F844   1.356       .  S
C829        C830   1.406       .  A
C830        F833   1.357       .  S
C831        C834   1.407       .  A
C831        C838   1.408       .  A
C834        C835   1.398       .  A
C834        F839   1.358       .  S
C835        C836   1.407       .  A
C835        F841   1.358       .  S
C836        C837   1.410       .  A
C837        C838   1.406       .  A
C837        F840   1.358       .  S
C838        F842   1.357       .  S
C845        C846   1.404       .  A
C845        C850   1.401       .  A
C845        F863   1.358       .  S
C846        C847   1.408       .  A
C846        C851   1.499       .  S
C847        C848   1.409       .  A
C847        F852   1.357       .  S
C848        C849   1.412       .  A
C848        F864   1.355       .  S
C849        C850   1.418       .  A
C850        F853   1.357       .  S
C851        C854   1.408       .  A
C851        C858   1.406       .  A
C854        C855   1.404       .  A
C854        F859   1.358       .  S
C855        C856   1.414       .  A
C855        F861   1.358       .  S
C856        C857   1.415       .  A
C857        C858   1.409       .  A
C857        F860   1.357       .  S
C858        F862   1.357       .  S
C865        C866   1.410       .  A
C865        C870   1.408       .  A
C865        F883   1.357       .  S
C866        C867   1.411       .  A
C866        C871   1.502       .  S
C867        C868   1.402       .  A
C867        F872   1.358       .  S
C868        C869   1.407       .  A
C868        F884   1.358       .  S
C869        C870   1.407       .  A
C870        F873   1.354       .  S
C871        C874   1.412       .  A
C871        C878   1.408       .  A
C874        C875   1.411       .  A
C874        F879   1.357       .  S
C875        C876   1.411       .  A
C875        F881   1.358       .  S
C876        C877   1.410       .  A
C877        C878   1.399       .  A
C877        F880   1.358       .  S
C878        F882   1.358       .  S
C885        C886   1.409       .  A
C885        C890   1.404       .  A
C885        F903   1.358       .  S
C886        C887   1.413       .  A
C886        C891   1.506       .  S
C887        C888   1.409       .  A
C887        F892   1.357       .  S
C888        C889   1.407       .  A
C888        F904   1.356       .  S
C889        C890   1.410       .  A
C890        F893   1.357       .  S
C891        C894   1.410       .  A
C891        C898   1.409       .  A
C894        C895   1.408       .  A
C894        F899   1.357       .  S
C895        C896   1.412       .  A
C895        F901   1.358       .  S
C896        C897   1.414       .  A
C897        C898   1.407       .  A
C897        F900   1.358       .  S
C898        F902   1.358       .  S
C905        C906   1.410       .  A
C905        C910   1.414       .  A
C905        F923   1.358       .  S
C906        C907   1.401       .  A
C906        C911   1.493       .  S
C907        C908   1.399       .  A
C907        F912   1.358       .  S
C908        C909   1.412       .  A
C908        F924   1.357       .  S
C909        C910   1.411       .  A
C910        F913   1.355       .  S
C911        C914   1.408       .  A
C911        C918   1.406       .  A
C914        C915   1.408       .  A
C914        F919   1.357       .  S
C915        C916   1.409       .  A
C915        F921   1.358       .  S
C916        C917   1.408       .  A
C917        C918   1.405       .  A
C917        F920   1.358       .  S
C918        F922   1.357       .  S
C925        C926   1.410       .  A
C925        C930   1.408       .  A
C925        F943   1.358       .  S
C926        C927   1.406       .  A
C926        C931   1.493       .  S
C927        C928   1.401       .  A
C927        F932   1.358       .  S
C928        C929   1.405       .  A
C928        F944   1.356       .  S
C929        C930   1.406       .  A
C930        F933   1.356       .  S
C931        C934   1.406       .  A
C931        C938   1.408       .  A
C934        C935   1.403       .  A
C934        F939   1.358       .  S
C935        C936   1.409       .  A
C935        F941   1.356       .  S
C936        C937   1.411       .  A
C937        C938   1.404       .  A
C937        F940   1.358       .  S
C938        F942   1.358       .  S
C945        C946   1.408       .  A
C945        C950   1.403       .  A
C945        F963   1.358       .  S
C946        C947   1.410       .  A
C946        C951   1.504       .  S
C947        C948   1.411       .  A
C947        F952   1.357       .  S
C948        C949   1.412       .  A
C948        F964   1.357       .  S
C949        C950   1.414       .  A
C950        F953   1.357       .  S
C951        C954   1.412       .  A
C951        C958   1.407       .  A
C954        C955   1.412       .  A
C954        F959   1.357       .  S
C955        C956   1.410       .  A
C955        F961   1.355       .  S
C956        C957   1.412       .  A
C957        C958   1.401       .  A
C957        F960   1.357       .  S
C958        F962   1.358       .  S
C965        C966   1.407       .  A
C965        C970   1.410       .  A
C965        F983   1.357       .  S
C966        C967   1.404       .  A
C966        C971   1.493       .  S
C967        C968   1.400       .  A
C967        F972   1.358       .  S
C968        C969   1.412       .  A
C968        F984   1.357       .  S
C969        C970   1.410       .  A
C970        F973   1.352       .  S
C971        C974   1.408       .  A
C971        C978   1.404       .  A
C974        C975   1.409       .  A
C974        F979   1.357       .  S
C975        C976   1.411       .  A
C975        F981   1.357       .  S
C976        C977   1.414       .  A
C977        C978   1.400       .  A
C977        F980   1.359       .  S
C978        F982   1.358       .  S
C985        C986   1.404       .  A
C985        C990   1.403       .  A
C985       F1003   1.358       .  S
C986        C987   1.410       .  A
C986        C991   1.495       .  S
C987        C988   1.407       .  A
C987        F992   1.358       .  S
C988        C989   1.408       .  A
C988       F1004   1.357       .  S
C989        C990   1.416       .  A
C990        F993   1.358       .  S
C991        C994   1.411       .  A
C991        C998   1.403       .  A
C994        C995   1.410       .  A
C994        F999   1.358       .  S
C995        C996   1.409       .  A
C995       F1001   1.355       .  S
C996        C997   1.413       .  A
C997        C998   1.399       .  A
C997       F1000   1.357       .  S
C998       F1002   1.358       .  S
C1005      C1006   1.407       .  A
C1005      C1010   1.400       .  A
C1005      F1023   1.358       .  S
C1006      C1007   1.406       .  A
C1006      C1011   1.483       .  S
C1007      C1008   1.400       .  A
C1007      F1012   1.358       .  S
C1008      C1009   1.407       .  A
C1008      F1024   1.358       .  S
C1009      C1010   1.405       .  A
C1010      F1013   1.358       .  S
C1011      C1014   1.406       .  A
C1011      C1018   1.408       .  A
C1014      C1015   1.397       .  A
C1014      F1019   1.358       .  S
C1015      C1016   1.402       .  A
C1015      F1021   1.357       .  S
C1016      C1017   1.403       .  A
C1017      C1018   1.403       .  A
C1017      F1020   1.356       .  S
C1018      F1022   1.358       .  S
C1025      C1026   1.415       .  A
C1025      C1030   1.413       .  A
C1025      F1043   1.357       .  S
C1026      C1027   1.410       .  A
C1026      C1031   1.508       .  S
C1027      C1028   1.401       .  A
C1027      F1032   1.358       .  S
C1028      C1029   1.409       .  A
C1028      F1044   1.358       .  S
C1029      C1030   1.405       .  A
C1030      F1033   1.356       .  S
C1031      C1034   1.411       .  A
C1031      C1038   1.410       .  A
C1034      C1035   1.410       .  A
C1034      F1039   1.357       .  S
C1035      C1036   1.411       .  A
C1035      F1041   1.357       .  S
C1036      C1037   1.413       .  A
C1037      C1038   1.405       .  A
C1037      F1040   1.358       .  S
C1038      F1042   1.358       .  S
C1045      C1046   1.399       .  A
C1045      C1050   1.396       .  A
C1045      F1063   1.358       .  S
C1046      C1047   1.410       .  A
C1046      C1051   1.486       .  S
C1047      C1048   1.411       .  A
C1047      F1052   1.357       .  S
C1048      C1049   1.407       .  A
C1048      F1064   1.357       .  S
C1049      C1050   1.414       .  A
C1050      F1053   1.358       .  S
C1051      C1054   1.404       .  A
C1051      C1058   1.406       .  A
C1054      C1055   1.401       .  A
C1054      F1059   1.358       .  S
C1055      C1056   1.409       .  A
C1055      F1061   1.358       .  S
C1056      C1057   1.408       .  A
C1057      C1058   1.405       .  A
C1057      F1060   1.357       .  S
C1058      F1062   1.357       .  S
C1065      C1066   1.415       .  A
C1065      C1070   1.410       .  A
C1065      F1083   1.358       .  S
C1066      C1067   1.406       .  A
C1066      C1071   1.499       .  S
C1067      C1068   1.399       .  A
C1067      F1072   1.358       .  S
C1068      C1069   1.408       .  A
C1068      F1084   1.356       .  S
C1069      C1070   1.404       .  A
C1070      F1073   1.357       .  S
C1071      C1074   1.410       .  A
C1071      C1078   1.410       .  A
C1074      C1075   1.402       .  A
C1074      F1079   1.357       .  S
C1075      C1076   1.406       .  A
C1075      F1081   1.358       .  S
C1076      C1077   1.408       .  A
C1077      C1078   1.404       .  A
C1077      F1080   1.358       .  S
C1078      F1082   1.358       .  S
C1085      C1086   1.403       .  A
C1085      C1090   1.401       .  A
C1085      F1103   1.358       .  S
C1086      C1087   1.404       .  A
C1086      C1091   1.484       .  S
C1087      C1088   1.399       .  A
C1087      F1092   1.358       .  S
C1088      C1089   1.412       .  A
C1088      F1104   1.358       .  S
C1089      C1090   1.417       .  A
C1090      F1093   1.358       .  S
C1091      C1094   1.405       .  A
C1091      C1098   1.406       .  A
C1094      C1095   1.400       .  A
C1094      F1099   1.358       .  S
C1095      C1096   1.408       .  A
C1095      F1101   1.358       .  S
C1096      C1097   1.409       .  A
C1097      C1098   1.403       .  A
C1097      F1100   1.357       .  S
C1098      F1102   1.358       .  S
C1105      C1106   1.403       .  A
C1105      C1110   1.401       .  A
C1105      F1123   1.358       .  S
C1106      C1107   1.407       .  A
C1106      C1111   1.483       .  S
C1107      C1108   1.402       .  A
C1107      F1112   1.357       .  S
C1108      C1109   1.403       .  A
C1108      F1124   1.357       .  S
C1109      C1110   1.410       .  A
C1110      F1113   1.358       .  S
C1111      C1114   1.403       .  A
C1111      C1118   1.407       .  A
C1114      C1115   1.404       .  A
C1114      F1119   1.358       .  S
C1115      C1116   1.411       .  A
C1115      F1121   1.358       .  S
C1116      C1117   1.402       .  A
C1117      C1118   1.401       .  A
C1117      F1120   1.357       .  S
C1118      F1122   1.358       .  S
C1125      C1126   1.405       .  A
C1125      C1130   1.398       .  A
C1125      F1143   1.358       .  S
C1126      C1127   1.406       .  A
C1126      C1131   1.485       .  S
C1127      C1128   1.405       .  A
C1127      F1132   1.357       .  S
C1128      C1129   1.408       .  A
C1128      F1144   1.357       .  S
C1129      C1130   1.406       .  A
C1130      F1133   1.358       .  S
C1131      C1134   1.403       .  A
C1131      C1138   1.408       .  A
C1134      C1135   1.403       .  A
C1134      F1139   1.358       .  S
C1135      C1136   1.412       .  A
C1135      F1141   1.358       .  S
C1136      C1137   1.403       .  A
C1137      C1138   1.403       .  A
C1137      F1140   1.357       .  S
C1138      F1142   1.358       .  S
C1145      C1146   1.405       .  A
C1145      C1150   1.403       .  A
C1145      F1163   1.358       .  S
C1146      C1147   1.399       .  A
C1146      C1151   1.482       .  S
C1147      C1148   1.399       .  A
C1147      F1152   1.358       .  S
C1148      C1149   1.418       .  A
C1148      F1164   1.358       .  S
C1149      C1150   1.412       .  A
C1150      F1153   1.358       .  S
C1151      C1154   1.405       .  A
C1151      C1158   1.404       .  A
C1154      C1155   1.403       .  A
C1154      F1159   1.357       .  S
C1155      C1156   1.406       .  A
C1155      F1161   1.357       .  S
C1156      C1157   1.407       .  A
C1157      C1158   1.398       .  A
C1157      F1160   1.358       .  S
C1158      F1162   1.358       .  S
C1165      C1166   1.405       .  A
C1165      C1170   1.398       .  A
C1165      F1183   1.358       .  S
C1166      C1167   1.413       .  A
C1166      C1171   1.493       .  S
C1167      C1168   1.407       .  A
C1167      F1172   1.358       .  S
C1168      C1169   1.403       .  A
C1168      F1184   1.357       .  S
C1169      C1170   1.409       .  A
C1170      F1173   1.358       .  S
C1171      C1174   1.408       .  A
C1171      C1178   1.409       .  A
C1174      C1175   1.401       .  A
C1174      F1179   1.358       .  S
C1175      C1176   1.406       .  A
C1175      F1181   1.358       .  S
C1176      C1177   1.406       .  A
C1177      C1178   1.403       .  A
C1177      F1180   1.358       .  S
C1178      F1182   1.358       .  S
C1185      C1186   1.409       .  A
C1185      C1190   1.406       .  A
C1185      F1203   1.357       .  S
C1186      C1187   1.403       .  A
C1186      C1191   1.491       .  S
C1187      C1188   1.400       .  A
C1187      F1192   1.358       .  S
C1188      C1189   1.414       .  A
C1188      F1204   1.358       .  S
C1189      C1190   1.408       .  A
C1190      F1193   1.358       .  S
C1191      C1194   1.407       .  A
C1191      C1198   1.407       .  A
C1194      C1195   1.404       .  A
C1194      F1199   1.358       .  S
C1195      C1196   1.405       .  A
C1195      F1201   1.357       .  S
C1196      C1197   1.409       .  A
C1197      C1198   1.404       .  A
C1197      F1200   1.358       .  S
C1198      F1202   1.358       .  S
C1205      C1206   1.408       .  A
C1205      C1210   1.402       .  A
C1205      F1223   1.358       .  S
C1206      C1207   1.406       .  A
C1206      C1211   1.485       .  S
C1207      C1208   1.399       .  A
C1207      F1212   1.358       .  S
C1208      C1209   1.403       .  A
C1208      F1224   1.357       .  S
C1209      C1210   1.405       .  A
C1210      F1213   1.358       .  S
C1211      C1214   1.406       .  A
C1211      C1218   1.403       .  A
C1214      C1215   1.397       .  A
C1214      F1219   1.358       .  S
C1215      C1216   1.411       .  A
C1215      F1221   1.358       .  S
C1216      C1217   1.416       .  A
C1217      C1218   1.402       .  A
C1217      F1220   1.358       .  S
C1218      F1222   1.358       .  S
C1225      C1226   1.405       .  A
C1225      C1230   1.399       .  A
C1225      F1243   1.358       .  S
C1226      C1227   1.409       .  A
C1226      C1231   1.492       .  S
C1227      C1228   1.406       .  A
C1227      F1232   1.358       .  S
C1228      C1229   1.407       .  A
C1228      F1244   1.357       .  S
C1229      C1230   1.409       .  A
C1230      F1233   1.353       .  S
C1231      C1234   1.405       .  A
C1231      C1238   1.411       .  A
C1234      C1235   1.399       .  A
C1234      F1239   1.358       .  S
C1235      C1236   1.410       .  A
C1235      F1241   1.358       .  S
C1236      C1237   1.405       .  A
C1237      C1238   1.406       .  A
C1237      F1240   1.358       .  S
C1238      F1242   1.357       .  S
C1245      C1246   1.407       .  A
C1245      C1250   1.401       .  A
C1245      F1263   1.358       .  S
C1246      C1247   1.405       .  A
C1246      C1251   1.488       .  S
C1247      C1248   1.404       .  A
C1247      F1252   1.358       .  S
C1248      C1249   1.413       .  A
C1248      F1264   1.358       .  S
C1249      C1250   1.408       .  A
C1250      F1253   1.358       .  S
C1251      C1254   1.408       .  A
C1251      C1258   1.405       .  A
C1254      C1255   1.406       .  A
C1254      F1259   1.358       .  S
C1255      C1256   1.407       .  A
C1255      F1261   1.357       .  S
C1256      C1257   1.406       .  A
C1257      C1258   1.400       .  A
C1257      F1260   1.358       .  S
C1258      F1262   1.358       .  S
C1265      C1266   1.406       .  A
C1265      C1270   1.400       .  A
C1265      F1283   1.358       .  S
C1266      C1267   1.402       .  A
C1266      C1271   1.481       .  S
C1267      C1268   1.402       .  A
C1267      F1272   1.358       .  S
C1268      C1269   1.410       .  A
C1268      F1284   1.358       .  S
C1269      C1270   1.404       .  A
C1270      F1273   1.358       .  S
C1271      C1274   1.409       .  A
C1271      C1278   1.401       .  A
C1274      C1275   1.404       .  A
C1274      F1279   1.358       .  S
C1275      C1276   1.403       .  A
C1275      F1281   1.357       .  S
C1276      C1277   1.411       .  A
C1277      C1278   1.398       .  A
C1277      F1280   1.359       .  S
C1278      F1282   1.358       .  S
C1285      C1286   1.411   1_556  A
C1285      C1290   1.411       .  A
C1285      F1303   1.358       .  S
C1286      C1287   1.401       .  A
C1286      C1291   1.496       .  S
C1287      C1288   1.400       .  A
C1287      F1292   1.358       .  S
C1288      C1289   1.418       .  A
C1288      F1304   1.356       .  S
C1289      C1290   1.411   1_554  A
C1290      F1293   1.356       .  S
C1291      C1294   1.402       .  A
C1291      C1298   1.410       .  A
C1294      C1295   1.403       .  A
C1294      F1299   1.358       .  S
C1295      C1296   1.416       .  A
C1295      F1301   1.358       .  S
C1296      C1297   1.412       .  A
C1297      C1298   1.408       .  A
C1297      F1300   1.358   1_554  S
C1298      F1302   1.358   1_554  S
C1305      C1306   1.410       .  A
C1305      C1310   1.406       .  A
C1305      F1323   1.358       .  S
C1306      C1307   1.402       .  A
C1306      C1311   1.486       .  S
C1307      C1308   1.400       .  A
C1307      F1312   1.358       .  S
C1308      C1309   1.412       .  A
C1308      F1324   1.358       .  S
C1309      C1310   1.404       .  A
C1310      F1313   1.357       .  S
C1311      C1314   1.408       .  A
C1311      C1318   1.404       .  A
C1314      C1315   1.403       .  A
C1314      F1319   1.358       .  S
C1315      C1316   1.403       .  A
C1315      F1321   1.357       .  S
C1316      C1317   1.411       .  A
C1317      C1318   1.403       .  A
C1317      F1320   1.358       .  S
C1318      F1322   1.358       .  S
C1325      C1326   1.408       .  A
C1325      C1330   1.397       .  A
C1325      F1343   1.358       .  S
C1326      C1327   1.406       .  A
C1326      C1331   1.493       .  S
C1327      C1328   1.405       .  A
C1327      F1332   1.358       .  S
C1328      C1329   1.417       .  A
C1328      F1344   1.358       .  S
C1329      C1330   1.411       .  A
C1330      F1333   1.358       .  S
C1331      C1334   1.409       .  A
C1331      C1338   1.408       .  A
C1334      C1335   1.403       .  A
C1334      F1339   1.358       .  S
C1335      C1336   1.406       .  A
C1335      F1341   1.358       .  S
C1336      C1337   1.405       .  A
C1337      C1338   1.399       .  A
C1337      F1340   1.357       .  S
C1338      F1342   1.358       .  S
C1345      C1346   1.407       .  A
C1345      C1350   1.401       .  A
C1345      F1363   1.358       .  S
C1346      C1347   1.406       .  A
C1346      C1351   1.488       .  S
C1347      C1348   1.401       .  A
C1347      F1352   1.358       .  S
C1348      C1349   1.408       .  A
C1348      F1364   1.358       .  S
C1349      C1350   1.406       .  A
C1350      F1353   1.356       .  S
C1351      C1354   1.410       .  A
C1351      C1358   1.401       .  A
C1354      C1355   1.407       .  A
C1354      F1359   1.358       .  S
C1355      C1356   1.408       .  A
C1355      F1361   1.357       .  S
C1356      C1357   1.415       .  A
C1357      C1358   1.396       .  A
C1357      F1360   1.359       .  S
C1358      F1362   1.358       .  S
C1365      C1366   1.402       .  A
C1365      C1370   1.401       .  A
C1365      F1383   1.358       .  S
C1366      C1367   1.410       .  A
C1366      C1371   1.490       .  S
C1367      C1368   1.407       .  A
C1367      F1372   1.357       .  S
C1368      C1369   1.405       .  A
C1368      F1384   1.357       .  S
C1369      C1370   1.412       .  A
C1370      F1373   1.358       .  S
C1371      C1374   1.406       .  A
C1371      C1378   1.407       .  A
C1374      C1375   1.402       .  A
C1374      F1379   1.358       .  S
C1375      C1376   1.406       .  A
C1375      F1381   1.358       .  S
C1376      C1377   1.407       .  A
C1377      C1378   1.406       .  A
C1377      F1380   1.358       .  S
C1378      F1382   1.357       .  S
C1385      C1386   1.410       .  A
C1385      C1390   1.401       .  A
C1385      F1403   1.358       .  S
C1386      C1387   1.403       .  A
C1386      C1391   1.482       .  S
C1387      C1388   1.397       .  A
C1387      F1392   1.358       .  S
C1388      C1389   1.407       .  A
C1388      F1404   1.359       .  S
C1389      C1390   1.402       .  A
C1390      F1393   1.358       .  S
C1391      C1394   1.405       .  A
C1391      C1398   1.405       .  A
C1394      C1395   1.402       .  A
C1394      F1399   1.357       .  S
C1395      C1396   1.408       .  A
C1395      F1401   1.357       .  S
C1396      C1397   1.408       .  A
C1397      C1398   1.396       .  A
C1397      F1400   1.358       .  S
C1398      F1402   1.358       .  S
C1405      C1406   1.405       .  A
C1405      C1410   1.401       .  A
C1405      F1423   1.358       .  S
C1406      C1407   1.407       .  A
C1406      C1411   1.487       .  S
C1407      C1408   1.403       .  A
C1407      F1412   1.358       .  S
C1408      C1409   1.406       .  A
C1408      F1424   1.358       .  S
C1409      C1410   1.406       .  A
C1410      F1413   1.357       .  S
C1411      C1414   1.404       .  A
C1411      C1418   1.404       .  A
C1414      C1415   1.406       .  A
C1414      F1419   1.357       .  S
C1415      C1416   1.416       .  A
C1415      F1421   1.358       .  S
C1416      C1417   1.413       .  A
C1417      C1418   1.398       .  A
C1417      F1420   1.358       .  S
C1418      F1422   1.358       .  S
C1425      C1426   1.410       .  A
C1425      C1430   1.404       .  A
C1425      F1443   1.358       .  S
C1426      C1427   1.403       .  A
C1426      C1431   1.490       .  S
C1427      C1428   1.399       .  A
C1427      F1432   1.358       .  S
C1428      C1429   1.412       .  A
C1428      F1444   1.358       .  S
C1429      C1430   1.407       .  A
C1430      F1433   1.358       .  S
C1431      C1434   1.408       .  A
C1431      C1438   1.407       .  A
C1434      C1435   1.403       .  A
C1434      F1439   1.358       .  S
C1435      C1436   1.409       .  A
C1435      F1441   1.358       .  S
C1436      C1437   1.403       .  A
C1437      C1438   1.399       .  A
C1437      F1440   1.358       .  S
C1438      F1442   1.358       .  S
C1445      C1446   1.406       .  A
C1445      C1450   1.398       .  A
C1445      F1463   1.359       .  S
C1446      C1447   1.403       .  A
C1446      C1451   1.485       .  S
C1447      C1448   1.402       .  A
C1447      F1452   1.358       .  S
C1448      C1449   1.415       .  A
C1448      F1464   1.358       .  S
C1449      C1450   1.412       .  A
C1450      F1453   1.358       .  S
C1451      C1454   1.408       .  A
C1451      C1458   1.406       .  A
C1454      C1455   1.401       .  A
C1454      F1459   1.358       .  S
C1455      C1456   1.403       .  A
C1455      F1461   1.357       .  S
C1456      C1457   1.405       .  A
C1457      C1458   1.398       .  A
C1457      F1460   1.358       .  S
C1458      F1462   1.358       .  S
C1465      C1466   1.409       .  A
C1465      C1470   1.402       .  A
C1465      F1483   1.358       .  S
C1466      C1467   1.405       .  A
C1466      C1471   1.488       .  S
C1467      C1468   1.403       .  A
C1467      F1472   1.358       .  S
C1468      C1469   1.408       .  A
C1468      F1484   1.358       .  S
C1469      C1470   1.402       .  A
C1470      F1473   1.357       .  S
C1471      C1474   1.408       .  A
C1471      C1478   1.404       .  A
C1474      C1475   1.403       .  A
C1474      F1479   1.358       .  S
C1475      C1476   1.403       .  A
C1475      F1481   1.357       .  S
C1476      C1477   1.410       .  A
C1477      C1478   1.403       .  A
C1477      F1480   1.358       .  S
C1478      F1482   1.358       .  S
C1485      C1486   1.409       .  A
C1485      C1490   1.406       .  A
C1485      F1503   1.358       .  S
C1486      C1487   1.408       .  A
C1486      C1491   1.495       .  S
C1487      C1488   1.397       .  A
C1487      F1492   1.358       .  S
C1488      C1489   1.405       .  A
C1488      F1504   1.355       .  S
C1489      C1490   1.410       .  A
C1490      F1493   1.358       .  S
C1491      C1494   1.413       .  A
C1491      C1498   1.403       .  A
C1494      C1495   1.411       .  A
C1494      F1499   1.357       .  S
C1495      C1496   1.409       .  A
C1495      F1501   1.358       .  S
C1496      C1497   1.411       .  A
C1497      C1498   1.391       .  A
C1497      F1500   1.358       .  S
C1498      F1502   1.358       .  S
C1505      C1506   1.405       .  A
C1505      C1510   1.398       .  A
C1505      F1523   1.358       .  S
C1506      C1507   1.408       .  A
C1506      C1511   1.488       .  S
C1507      C1508   1.405       .  A
C1507      F1512   1.357       .  S
C1508      C1509   1.406       .  A
C1508      F1524   1.354       .  S
C1509      C1510   1.407       .  A
C1510      F1513   1.357       .  S
C1511      C1514   1.408       .  A
C1511      C1518   1.405       .  A
C1514      C1515   1.401       .  A
C1514      F1519   1.358       .  S
C1515      C1516   1.407       .  A
C1515      F1521   1.358       .  S
C1516      C1517   1.410       .  A
C1517      C1518   1.402       .  A
C1517      F1520   1.358       .  S
C1518      F1522   1.358       .  S
C1525      C1526   1.402       .  A
C1525      C1530   1.400       .  A
C1525      F1543   1.358       .  S
C1526      C1527   1.410       .  A
C1526      C1531   1.485       .  S
C1527      C1528   1.403       .  A
C1527      F1532   1.358       .  S
C1528      C1529   1.403       .  A
C1528      F1544   1.357       .  S
C1529      C1530   1.412       .  A
C1530      F1533   1.358       .  S
C1531      C1534   1.405       .  A
C1531      C1538   1.406       .  A
C1534      C1535   1.396       .  A
C1534      F1539   1.358       .  S
C1535      C1536   1.405       .  A
C1535      F1541   1.358       .  S
C1536      C1537   1.409       .  A
C1537      C1538   1.405       .  A
C1537      F1540   1.357   1_565  S
C1538      F1542   1.357       .  S
C1545      C1546   1.406       .  A
C1545      C1550   1.396       .  A
C1545      F1563   1.358       .  S
C1546      C1547   1.411       .  A
C1546      C1551   1.492       .  S
C1547      C1548   1.403       .  A
C1547      F1552   1.358       .  S
C1548      C1549   1.407       .  A
C1548      F1564   1.358       .  S
C1549      C1550   1.405       .  A
C1550      F1553   1.353       .  S
C1551      C1554   1.410       .  A
C1551      C1558   1.407       .  A
C1554      C1555   1.403       .  A
C1554      F1559   1.357       .  S
C1555      C1556   1.406       .  A
C1555      F1561   1.357       .  S
C1556      C1557   1.411       .  A
C1557      C1558   1.397       .  A
C1557      F1560   1.359       .  S
C1558      F1562   1.358       .  S
C1565      C1566   1.404       .  A
C1565      C1570   1.396       .  A
C1565      F1583   1.358       .  S
C1566      C1567   1.412       .  A
C1566      C1571   1.487       .  S
C1567      C1568   1.405       .  A
C1567      F1572   1.358       .  S
C1568      C1569   1.402       .  A
C1568      F1584   1.357       .  S
C1569      C1570   1.406       .  A
C1570      F1573   1.357       .  S
C1571      C1574   1.408       .  A
C1571      C1578   1.406       .  A
C1574      C1575   1.402       .  A
C1574      F1579   1.358       .  S
C1575      C1576   1.406       .  A
C1575      F1581   1.357       .  S
C1576      C1577   1.408       .  A
C1577      C1578   1.398       .  A
C1577      F1580   1.358       .  S
C1578      F1582   1.358       .  S
C1585      C1586   1.404       .  A
C1585      C1590   1.397       .  A
C1585      F1603   1.359       .  S
C1586      C1587   1.402       .  A
C1586      C1591   1.485       .  S
C1587      C1588   1.407       .  A
C1587      F1592   1.358       .  S
C1588      C1589   1.418       .  A
C1588      F1604   1.358       .  S
C1589      C1590   1.412       .  A
C1590      F1593   1.358       .  S
C1591      C1594   1.407       .  A
C1591      C1598   1.405       .  A
C1594      C1595   1.404       .  A
C1594      F1599   1.357       .  S
C1595      C1596   1.405       .  A
C1595      F1601   1.358       .  S
C1596      C1597   1.406       .  A
C1597      C1598   1.398       .  A
C1597      F1600   1.358       .  S
C1598      F1602   1.358       .  S
C1605      C1606   1.407       .  A
C1605      C1610   1.403       .  A
C1605      F1623   1.357       .  S
C1606      C1607   1.405       .  A
C1606      C1611   1.484       .  S
C1607      C1608   1.396       .  A
C1607      F1612   1.358       .  S
C1608      C1609   1.406       .  A
C1608      F1624   1.358       .  S
C1609      C1610   1.407       .  A
C1610      F1613   1.358       .  S
C1611      C1614   1.410       .  A
C1611      C1618   1.402       .  A
C1614      C1615   1.403       .  A
C1614      F1619   1.358       .  S
C1615      C1616   1.403       .  A
C1615      F1621   1.357       .  S
C1616      C1617   1.411       .  A
C1617      C1618   1.399       .  A
C1617      F1620   1.358       .  S
C1618      F1622   1.358       .  S
C1625      C1626   1.402       .  A
C1625      C1630   1.394       .  A
C1625      F1643   1.358       .  S
C1626      C1627   1.405       .  A
C1626      C1631   1.475       .  S
C1627      C1628   1.401       .  A
C1627      F1632   1.358       .  S
C1628      C1629   1.405       .  A
C1628      F1644   1.358       .  S
C1629      C1630   1.405       .  A
C1630      F1633   1.358       .  S
C1631      C1634   1.400       .  A
C1631      C1638   1.403       .  A
C1634      C1635   1.400       .  A
C1634      F1639   1.358       .  S
C1635      C1636   1.416       .  A
C1635      F1641   1.358       .  S
C1636      C1637   1.410       .  A
C1637      C1638   1.395       .  A
C1637      F1640   1.358       .  S
C1638      F1642   1.359       .  S
C1645      C1646   1.405   1_455  A
C1645      C1650   1.405       .  A
C1645      F1663   1.358       .  S
C1646      C1647   1.408       .  A
C1646      C1651   1.503       .  S
C1647      C1648   1.412       .  A
C1647      F1652   1.357       .  S
C1648      C1649   1.412       .  A
C1648      F1664   1.355       .  S
C1649      C1650   1.419   1_655  A
C1650      F1653   1.357       .  S
C1651      C1654   1.406       .  A
C1651      C1658   1.408       .  A
C1654      C1655   1.404       .  A
C1654      F1659   1.358       .  S
C1655      C1656   1.416       .  A
C1655      F1661   1.358       .  S
C1656      C1657   1.416       .  A
C1657      C1658   1.413       .  A
C1657      F1660   1.357       .  S
C1658      F1662   1.357       .  S
C1665      C1666   1.410       .  A
C1665      C1670   1.408       .  A
C1665      F1683   1.357       .  S
C1666      C1667   1.402       .  A
C1666      C1671   1.491       .  S
C1667      C1668   1.400       .  A
C1667      F1672   1.358       .  S
C1668      C1669   1.414       .  A
C1668      F1684   1.358       .  S
C1669      C1670   1.407       .  A
C1670      F1673   1.357       .  S
C1671      C1674   1.407       .  A
C1671      C1678   1.406       .  A
C1674      C1675   1.405       .  A
C1674      F1679   1.357       .  S
C1675      C1676   1.404       .  A
C1675      F1681   1.357       .  S
C1676      C1677   1.410       .  A
C1677      C1678   1.403       .  A
C1677      F1680   1.358       .  S
C1678      F1682   1.358       .  S
C1685      C1686   1.414       .  A
C1685      C1690   1.407       .  A
C1685      F1703   1.357       .  S
C1686      C1687   1.405       .  A
C1686      C1691   1.492       .  S
C1687      C1688   1.396       .  A
C1687      F1692   1.358       .  S
C1688      C1689   1.407       .  A
C1688      F1704   1.357       .  S
C1689      C1690   1.402       .  A
C1690      F1693   1.357       .  S
C1691      C1694   1.409       .  A
C1691      C1698   1.408       .  A
C1694      C1695   1.404       .  A
C1694      F1699   1.358       .  S
C1695      C1696   1.406       .  A
C1695      F1701   1.357       .  S
C1696      C1697   1.407       .  A
C1697      C1698   1.398       .  A
C1697      F1700   1.358       .  S
C1698      F1702   1.358       .  S
C1705      C1706   1.403       .  A
C1705      C1710   1.401       .  A
C1705      F1723   1.358       .  S
C1706      C1707   1.407       .  A
C1706      C1711   1.485       .  S
C1707      C1708   1.403       .  A
C1707      F1712   1.357       .  S
C1708      C1709   1.405       .  A
C1708      F1724   1.357       .  S
C1709      C1710   1.410       .  A
C1710      F1713   1.358       .  S
C1711      C1714   1.399       .  A
C1711      C1718   1.409       .  A
C1714      C1715   1.397       .  A
C1714      F1719   1.358       .  S
C1715      C1716   1.415       .  A
C1715      F1721   1.359       .  S
C1716      C1717   1.408       .  A
C1717      C1718   1.409       .  A
C1717      F1720   1.357       .  S
C1718      F1722   1.358       .  S
C1725      C1726   1.404       .  A
C1725      C1730   1.403       .  A
C1725      F1743   1.358       .  S
C1726      C1727   1.403       .  A
C1726      C1731   1.478       .  S
C1727      C1728   1.397       .  A
C1727      F1732   1.358       .  S
C1728      C1729   1.407       .  A
C1728      F1744   1.358       .  S
C1729      C1730   1.406       .  A
C1730      F1733   1.357       .  S
C1731      C1734   1.404       .  A
C1731      C1738   1.401       .  A
C1734      C1735   1.395       .  A
C1734      F1739   1.358       .  S
C1735      C1736   1.408       .  A
C1735      F1741   1.358       .  S
C1736      C1737   1.416       .  A
C1737      C1738   1.404       .  A
C1737      F1740   1.358       .  S
C1738      F1742   1.358       .  S
C1745      C1746   1.409       .  A
C1745      C1750   1.404       .  A
C1745      F1763   1.358       .  S
C1746      C1747   1.407       .  A
C1746      C1751   1.495       .  S
C1747      C1748   1.404       .  A
C1747      F1752   1.357       .  S
C1748      C1749   1.407       .  A
C1748      F1764   1.354       .  S
C1749      C1750   1.408       .  A
C1750      F1753   1.357       .  S
C1751      C1754   1.407       .  A
C1751      C1758   1.409       .  A
C1754      C1755   1.401       .  A
C1754      F1759   1.358       .  S
C1755      C1756   1.411       .  A
C1755      F1761   1.358       .  S
C1756      C1757   1.410       .  A
C1757      C1758   1.408       .  A
C1757      F1760   1.357       .  S
C1758      F1762   1.357       .  S
C1765      C1766   1.407       .  A
C1765      C1770   1.402       .  A
C1765      F1783   1.358       .  S
C1766      C1767   1.406       .  A
C1766      C1771   1.488       .  S
C1767      C1768   1.403       .  A
C1767      F1772   1.358       .  S
C1768      C1769   1.407       .  A
C1768      F1784   1.356       .  S
C1769      C1770   1.408       .  A
C1770      F1773   1.358       .  S
C1771      C1774   1.403       .  A
C1771      C1778   1.410       .  A
C1774      C1775   1.398       .  A
C1774      F1779   1.358       .  S
C1775      C1776   1.412       .  A
C1775      F1781   1.358       .  S
C1776      C1777   1.404       .  A
C1777      C1778   1.406       .  A
C1777      F1780   1.357       .  S
C1778      F1782   1.357       .  S
C1785      C1786   1.404       .  A
C1785      C1790   1.400       .  A
C1785      F1803   1.358       .  S
C1786      C1787   1.411       .  A
C1786      C1791   1.493       .  S
C1787      C1788   1.407       .  A
C1787      F1792   1.358       .  S
C1788      C1789   1.406       .  A
C1788      F1804   1.357       .  S
C1789      C1790   1.412       .  A
C1790      F1793   1.358       .  S
C1791      C1794   1.407       .  A
C1791      C1798   1.408       .  A
C1794      C1795   1.403       .  A
C1794      F1799   1.358       .  S
C1795      C1796   1.408       .  A
C1795      F1801   1.356       .  S
C1796      C1797   1.406       .  A
C1797      C1798   1.404       .  A
C1797      F1800   1.358       .  S
C1798      F1802   1.357       .  S
C1805      C1806   1.414       .  A
C1805      C1810   1.414       .  A
C1805      F1823   1.357       .  S
C1806      C1807   1.409       .  A
C1806      C1811   1.507       .  S
C1807      C1808   1.402       .  A
C1807      F1812   1.358       .  S
C1808      C1809   1.409       .  A
C1808      F1824   1.358       .  S
C1809      C1810   1.406       .  A
C1810      F1813   1.356       .  S
C1811      C1814   1.410   1_655  A
C1811      C1818   1.412       .  A
C1814      C1815   1.406       .  A
C1814      F1819   1.358       .  S
C1815      C1816   1.407   1_455  A
C1815      F1821   1.358       .  S
C1816      C1817   1.409       .  A
C1817      C1818   1.412       .  A
C1817      F1820   1.357       .  S
C1818      F1822   1.357       .  S
C1825      C1826   1.406       .  A
C1825      C1830   1.399       .  A
C1825      F1843   1.358       .  S
C1826      C1827   1.406       .  A
C1826      C1831   1.485       .  S
C1827      C1828   1.401       .  A
C1827      F1832   1.358       .  S
C1828      C1829   1.409       .  A
C1828      F1844   1.358       .  S
C1829      C1830   1.406       .  A
C1830      F1833   1.357   1_565  S
C1831      C1834   1.406       .  A
C1831      C1838   1.403       .  A
C1834      C1835   1.400       .  A
C1834      F1839   1.358       .  S
C1835      C1836   1.409       .  A
C1835      F1841   1.358       .  S
C1836      C1837   1.415       .  A
C1837      C1838   1.401       .  A
C1837      F1840   1.358       .  S
C1838      F1842   1.358       .  S
C1845      C1846   1.406       .  A
C1845      C1850   1.401       .  A
C1845      F1863   1.358       .  S
C1846      C1847   1.401       .  A
C1846      C1851   1.472       .  S
C1847      C1848   1.393       .  A
C1847      F1852   1.358       .  S
C1848      C1849   1.405       .  A
C1848      F1864   1.358       .  S
C1849      C1850   1.403       .  A
C1850      F1853   1.358       .  S
C1851      C1854   1.404       .  A
C1851      C1858   1.397       .  A
C1854      C1855   1.398       .  A
C1854      F1859   1.358       .  S
C1855      C1856   1.410       .  A
C1855      F1861   1.358       .  S
C1856      C1857   1.418       .  A
C1857      C1858   1.397       .  A
C1857      F1860   1.357       .  S
C1858      F1862   1.358       .  S
C1865      C1866   1.408       .  A
C1865      C1870   1.400       .  A
C1865      F1883   1.358       .  S
C1866      C1867   1.407       .  A
C1866      C1871   1.490       .  S
C1867      C1868   1.403       .  A
C1867      F1872   1.358       .  S
C1868      C1869   1.407       .  A
C1868      F1884   1.354       .  S
C1869      C1870   1.406       .  A
C1870      F1873   1.357       .  S
C1871      C1874   1.406       .  A
C1871      C1878   1.407       .  A
C1874      C1875   1.399       .  A
C1874      F1879   1.358       .  S
C1875      C1876   1.411       .  A
C1875      F1881   1.359       .  S
C1876      C1877   1.409       .  A
C1877      C1878   1.403       .  A
C1877      F1880   1.357       .  S
C1878      F1882   1.357       .  S
C1885      C1886   1.403       .  A
C1885      C1890   1.399       .  A
C1885      F1903   1.358       .  S
C1886      C1887   1.400       .  A
C1886      C1891   1.476       .  S
C1887      C1888   1.399       .  A
C1887      F1892   1.358       .  S
C1888      C1889   1.416       .  A
C1888      F1904   1.358       .  S
C1889      C1890   1.414       .  A
C1890      F1893   1.358       .  S
C1891      C1894   1.402       .  A
C1891      C1898   1.404       .  A
C1894      C1895   1.395       .  A
C1894      F1899   1.358       .  S
C1895      C1896   1.408       .  A
C1895      F1901   1.358       .  S
C1896      C1897   1.408       .  A
C1897      C1898   1.401       .  A
C1897      F1900   1.357       .  S
C1898      F1902   1.357       .  S
C1905      C1906   1.407       .  A
C1905      C1910   1.401       .  A
C1905      F1923   1.358       .  S
C1906      C1907   1.407       .  A
C1906      C1911   1.487       .  S
C1907      C1908   1.399       .  A
C1907      F1912   1.358       .  S
C1908      C1909   1.404       .  A
C1908      F1924   1.358       .  S
C1909      C1910   1.408       .  A
C1910      F1913   1.358   1_455  S
C1911      C1914   1.411       .  A
C1911      C1918   1.401       .  A
C1914      C1915   1.406       .  A
C1914      F1919   1.358       .  S
C1915      C1916   1.406       .  A
C1915      F1921   1.357       .  S
C1916      C1917   1.415       .  A
C1917      C1918   1.395       .  A
C1917      F1920   1.358       .  S
C1918      F1922   1.358       .  S
C1925      C1926   1.406       .  A
C1925      C1930   1.400       .  A
C1925      F1943   1.358       .  S
C1926      C1927   1.409       .  A
C1926      C1931   1.497       .  S
C1927      C1928   1.409       .  A
C1927      F1932   1.357   1_655  S
C1928      C1929   1.410       .  A
C1928      F1944   1.353   1_655  S
C1929      C1930   1.413       .  A
C1930      F1933   1.357       .  S
C1931      C1934   1.408       .  A
C1931      C1938   1.406       .  A
C1934      C1935   1.408       .  A
C1934      F1939   1.358       .  S
C1935      C1936   1.413       .  A
C1935      F1941   1.356       .  S
C1936      C1937   1.414       .  A
C1937      C1938   1.401       .  A
C1937      F1940   1.357   1_665  S
C1938      F1942   1.358       .  S
C1945      C1946   1.405       .  A
C1945      C1950   1.401       .  A
C1945      F1963   1.358       .  S
C1946      C1947   1.404       .  A
C1946      C1951   1.484       .  S
C1947      C1948   1.402       .  A
C1947      F1952   1.358       .  S
C1948      C1949   1.410       .  A
C1948      F1964   1.357       .  S
C1949      C1950   1.407       .  A
C1950      F1953   1.358       .  S
C1951      C1954   1.400       .  A
C1951      C1958   1.408       .  A
C1954      C1955   1.398       .  A
C1954      F1959   1.358       .  S
C1955      C1956   1.413       .  A
C1955      F1961   1.358       .  S
C1956      C1957   1.408       .  A
C1957      C1958   1.406       .  A
C1957      F1960   1.357       .  S
C1958      F1962   1.358       .  S
C1965      C1966   1.405       .  A
C1965      C1970   1.400       .  A
C1965      F1983   1.358       .  S
C1966      C1967   1.409       .  A
C1966      C1971   1.494       .  S
C1967      C1968   1.409       .  A
C1967      F1972   1.357       .  S
C1968      C1969   1.409       .  A
C1968      F1984   1.357       .  S
C1969      C1970   1.411       .  A
C1970      F1973   1.358       .  S
C1971      C1974   1.413       .  A
C1971      C1978   1.401       .  A
C1974      C1975   1.414       .  A
C1974      F1979   1.357       .  S
C1975      C1976   1.408       .  A
C1975      F1981   1.357       .  S
C1976      C1977   1.412       .  A
C1977      C1978   1.397       .  A
C1977      F1980   1.357       .  S
C1978      F1982   1.358       .  S
C1985      C1986   1.409       .  A
C1985      C1990   1.413       .  A
C1985      F2003   1.357       .  S
C1986      C1987   1.407       .  A
C1986      C1991   1.507       .  S
C1987      C1988   1.407   1_655  A
C1987      F1992   1.358   1_655  S
C1988      C1989   1.417   1_455  A
C1988      F2004   1.357       .  S
C1989      C1990   1.414       .  A
C1990      F1993   1.354       .  S
C1991      C1994   1.411       .  A
C1991      C1998   1.411   1_655  A
C1994      C1995   1.410       .  A
C1994      F1999   1.357       .  S
C1995      C1996   1.407       .  A
C1995      F2001   1.358       .  S
C1996      C1997   1.407   1_655  A
C1997      C1998   1.410       .  A
C1997      F2000   1.358       .  S
C1998      F2002   1.357       .  S
C2005      C2006   1.410       .  A
C2005      C2010   1.405       .  A
C2005      F2023   1.358       .  S
C2006      C2007   1.407       .  A
C2006      C2011   1.492       .  S
C2007      C2008   1.398       .  A
C2007      F2012   1.358       .  S
C2008      C2009   1.406       .  A
C2008      F2024   1.358       .  S
C2009      C2010   1.405       .  A
C2010      F2013   1.358       .  S
C2011      C2014   1.412       .  A
C2011      C2018   1.406       .  A
C2014      C2015   1.406       .  A
C2014      F2019   1.358       .  S
C2015      C2016   1.403       .  A
C2015      F2021   1.357       .  S
C2016      C2017   1.407       .  A
C2017      C2018   1.398       .  A
C2017      F2020   1.358       .  S
C2018      F2022   1.358       .  S
C2025      C2026   1.405       .  A
C2025      C2030   1.404       .  A
C2025      F2043   1.358       .  S
C2026      C2027   1.407       .  A
C2026      C2031   1.491       .  S
C2027      C2028   1.400       .  A
C2027      F2032   1.358       .  S
C2028      C2029   1.413       .  A
C2028      F2044   1.358       .  S
C2029      C2030   1.415       .  A
C2030      F2033   1.357       .  S
C2031      C2034   1.408       .  A
C2031      C2038   1.408       .  A
C2034      C2035   1.401       .  A
C2034      F2039   1.358       .  S
C2035      C2036   1.405       .  A
C2035      F2041   1.357       .  S
C2036      C2037   1.405       .  A
C2037      C2038   1.400       .  A
C2037      F2040   1.358       .  S
C2038      F2042   1.358       .  S
C2045      C2046   1.409       .  A
C2045      C2050   1.402       .  A
C2045      F2063   1.358       .  S
C2046      C2047   1.410       .  A
C2046      C2051   1.501       .  S
C2047      C2048   1.409       .  A
C2047      F2052   1.358   1_545  S
C2048      C2049   1.412       .  A
C2048      F2064   1.358       .  S
C2049      C2050   1.408       .  A
C2050      F2053   1.358       .  S
C2051      C2054   1.410       .  A
C2051      C2058   1.412       .  A
C2054      C2055   1.401       .  A
C2054      F2059   1.358       .  S
C2055      C2056   1.404       .  A
C2055      F2061   1.357       .  S
C2056      C2057   1.406       .  A
C2057      C2058   1.409       .  A
C2057      F2060   1.355       .  S
C2058      F2062   1.357       .  S
C2065      C2066   1.403       .  A
C2065      C2070   1.399       .  A
C2065      F2083   1.358       .  S
C2066      C2067   1.405       .  A
C2066      C2071   1.480       .  S
C2067      C2068   1.403       .  A
C2067      F2072   1.358       .  S
C2068      C2069   1.408       .  A
C2068      F2084   1.357       .  S
C2069      C2070   1.408       .  A
C2070      F2073   1.358       .  S
C2071      C2074   1.400       .  A
C2071      C2078   1.402       .  A
C2074      C2075   1.402       .  A
C2074      F2079   1.357       .  S
C2075      C2076   1.417       .  A
C2075      F2081   1.357       .  S
C2076      C2077   1.415       .  A
C2077      C2078   1.400       .  A
C2077      F2080   1.358       .  S
C2078      F2082   1.358       .  S
C2085      C2086   1.402       .  A
C2085      C2090   1.398       .  A
C2085      F2103   1.358       .  S
C2086      C2087   1.409       .  A
C2086      C2091   1.490       .  S
C2087      C2088   1.407       .  A
C2087      F2092   1.357       .  S
C2088      C2089   1.409       .  A
C2088      F2104   1.357       .  S
C2089      C2090   1.414       .  A
C2090      F2093   1.358       .  S
C2091      C2094   1.406       .  A
C2091      C2098   1.408       .  A
C2094      C2095   1.400       .  A
C2094      F2099   1.358       .  S
C2095      C2096   1.408       .  A
C2095      F2101   1.358       .  S
C2096      C2097   1.406       .  A
C2097      C2098   1.406       .  A
C2097      F2100   1.358       .  S
C2098      F2102   1.357       .  S
C2105      C2106   1.407       .  A
C2105      C2110   1.401       .  A
C2105      F2123   1.358       .  S
C2106      C2107   1.409   1_556  A
C2106      C2111   1.499       .  S
C2107      C2108   1.410       .  A
C2107      F2112   1.357       .  S
C2108      C2109   1.412       .  A
C2108      F2124   1.357       .  S
C2109      C2110   1.413   1_554  A
C2110      F2113   1.358   1_565  S
C2111      C2114   1.405   1_556  A
C2111      C2118   1.411       .  A
C2114      C2115   1.398       .  A
C2114      F2119   1.358       .  S
C2115      C2116   1.413   1_554  A
C2115      F2121   1.357       .  S
C2116      C2117   1.410       .  A
C2117      C2118   1.413       .  A
C2117      F2120   1.356       .  S
C2118      F2122   1.357       .  S
C2125      C2126   1.412       .  A
C2125      C2130   1.403       .  A
C2125      F2143   1.358       .  S
C2126      C2127   1.409       .  A
C2126      C2131   1.498       .  S
C2127      C2128   1.402       .  A
C2127      F2132   1.358       .  S
C2128      C2129   1.407       .  A
C2128      F2144   1.358       .  S
C2129      C2130   1.405       .  A
C2130      F2133   1.356       .  S
C2131      C2134   1.414       .  A
C2131      C2138   1.405       .  A
C2134      C2135   1.408       .  A
C2134      F2139   1.358       .  S
C2135      C2136   1.407       .  A
C2135      F2141   1.358       .  S
C2136      C2137   1.412       .  A
C2137      C2138   1.396       .  A
C2137      F2140   1.358       .  S
C2138      F2142   1.358       .  S
C2145      C2146   1.408       .  A
C2145      C2150   1.402       .  A
C2145      F2163   1.358       .  S
C2146      C2147   1.408       .  A
C2146      C2151   1.496       .  S
C2147      C2148   1.405       .  A
C2147      F2152   1.358       .  S
C2148      C2149   1.408       .  A
C2148      F2164   1.358       .  S
C2149      C2150   1.408       .  A
C2150      F2153   1.356       .  S
C2151      C2154   1.404       .  A
C2151      C2158   1.412       .  A
C2154      C2155   1.398       .  A
C2154      F2159   1.358       .  S
C2155      C2156   1.411       .  A
C2155      F2161   1.358       .  S
C2156      C2157   1.408       .  A
C2157      C2158   1.410       .  A
C2157      F2160   1.358       .  S
C2158      F2162   1.358       .  S
C2165      C2166   1.412       .  A
C2165      C2170   1.414       .  A
C2165      F2183   1.357   1_554  S
C2166      C2167   1.405       .  A
C2166      C2171   1.502       .  S
C2167      C2168   1.402       .  A
C2167      F2172   1.358       .  S
C2168      C2169   1.414       .  A
C2168      F2184   1.357       .  S
C2169      C2170   1.409       .  A
C2170      F2173   1.356   1_554  S
C2171      C2174   1.407       .  A
C2171      C2178   1.408   1_554  A
C2174      C2175   1.411       .  A
C2174      F2179   1.357       .  S
C2175      C2176   1.414       .  A
C2175      F2181   1.357       .  S
C2176      C2177   1.414   1_554  A
C2177      C2178   1.406       .  A
C2177      F2180   1.358       .  S
C2178      F2182   1.358       .  S
C2185      C2186   1.400       .  A
C2185      C2190   1.401       .  A
C2185      F2203   1.358       .  S
C2186      C2187   1.404       .  A
C2186      C2191   1.479       .  S
C2187      C2188   1.399       .  A
C2187      F2192   1.358       .  S
C2188      C2189   1.412       .  A
C2188      F2204   1.358       .  S
C2189      C2190   1.418       .  A
C2190      F2193   1.358       .  S
C2191      C2194   1.404       .  A
C2191      C2198   1.404       .  A
C2194      C2195   1.399       .  A
C2194      F2199   1.357       .  S
C2195      C2196   1.406       .  A
C2195      F2201   1.358       .  S
C2196      C2197   1.406       .  A
C2197      C2198   1.399       .  A
C2197      F2200   1.357       .  S
C2198      F2202   1.358       .  S
C2205      C2206   1.409       .  A
C2205      C2210   1.405       .  A
C2205      F2223   1.358       .  S
C2206      C2207   1.400       .  A
C2206      C2211   1.485       .  S
C2207      C2208   1.394       .  A
C2207      F2212   1.359       .  S
C2208      C2209   1.416       .  A
C2208      F2224   1.358       .  S
C2209      C2210   1.408       .  A
C2210      F2213   1.357       .  S
C2211      C2214   1.408       .  A
C2211      C2218   1.406       .  A
C2214      C2215   1.402       .  A
C2214      F2219   1.358       .  S
C2215      C2216   1.404       .  A
C2215      F2221   1.358       .  S
C2216      C2217   1.405       .  A
C2217      C2218   1.397       .  A
C2217      F2220   1.358       .  S
C2218      F2222   1.358       .  S
C2225      C2226   1.407       .  A
C2225      C2230   1.406       .  A
C2225      F2243   1.357       .  S
C2226      C2227   1.402   1_556  A
C2226      C2231   1.482       .  S
C2227      C2228   1.395       .  A
C2227      F2232   1.358       .  S
C2228      C2229   1.407       .  A
C2228      F2244   1.357       .  S
C2229      C2230   1.407   1_554  A
C2230      F2233   1.355       .  S
C2231      C2234   1.405   1_556  A
C2231      C2238   1.404       .  A
C2234      C2235   1.403       .  A
C2234      F2239   1.357       .  S
C2235      C2236   1.406   1_554  A
C2235      F2241   1.358       .  S
C2236      C2237   1.408       .  A
C2237      C2238   1.400       .  A
C2237      F2240   1.356       .  S
C2238      F2242   1.358       .  S
