geometry optimzed in LAMMPS
_audit_creation_date              2020-12-01 
_audit_creation_method            'lammps2cif' 
_symmetry_space_group_name_H-M    'P1' 
_symmetry_Int_Tables_number       1 
_symmetry_cell_setting            triclinic 
loop_ 
_symmetry_equiv_pos_as_xyz 
  x,y,z 
_cell_length_a                    31.63736821 
_cell_length_b                    31.5219344723531 
_cell_length_c                    27.918732730108843 
_cell_angle_alpha                 90.00239422445416 
_cell_angle_beta                  89.98032707687372 
_cell_angle_gamma                 89.9992999147163 
loop_ 
_atom_site_label 
_atom_site_type_symbol 
_atom_site_fract_x 
_atom_site_fract_y 
_atom_site_fract_z 
_atom_site_charge 
O1          O  0.42999765  0.38341052  0.37800705    -0.56100
C2          C  0.03767084  0.34482235  0.27604583     0.76500
O3          O  0.41926082  0.34999908  0.23020102    -0.57300
C4          C  0.39254526  0.39299037  0.36508147     0.76500
C5          C  0.49084536  0.46848280  0.28858847     0.78900
Cd6        Cd  0.45938721  0.38469793  0.29614104     1.37500
O7          O  0.02743897  0.34977220  0.31988368    -0.56100
O8          O  0.49205137  0.44689657  0.32679315    -0.54900
C9          C  0.41683164  0.31567400  0.25438234     0.78800
O10         O  0.47268737  0.45203552  0.25231224    -0.57300
O11         O  0.01247827  0.35878280  0.24460475    -0.55800
O12         O  0.38671905  0.40092021  0.32097473    -0.55700
O13         O  0.43402043  0.31482020  0.29541899    -0.54900
O14         O  0.06963781  0.09634232  0.37804421    -0.56100
C15         C  0.46199920  0.13474632  0.27608647     0.76500
O16         O  0.08047668  0.12956457  0.23017689    -0.57300
C17         C  0.10711921  0.08682916  0.36513579     0.76500
C18         C  0.00895454  0.01109725  0.28859889     0.78900
Cd19       Cd  0.04031170  0.09492281  0.29616165     1.37500
O20         O  0.47221472  0.12979968  0.31992116    -0.56100
O21         O  0.00775424  0.03265947  0.32682339    -0.54900
C22         C  0.08285651  0.16391829  0.25431190     0.78800
O23         O  0.02708519  0.02757815  0.25231392    -0.57300
O24         O  0.48721489  0.12080132  0.24464204    -0.55800
O25         O  0.11298912  0.07885870  0.32104073    -0.55700
O26         O  0.06561427  0.16481148  0.29533190    -0.54900
O27         O  0.18000280  0.09646057  0.38647684    -0.56100
C28         C  0.28766306  0.13500103  0.48836126     0.76500
O29         O  0.16922460  0.12981068  0.53434616    -0.57300
C30         C  0.14254215  0.08688694  0.39940333     0.76500
C31         C  0.24078527  0.01134703  0.47589629     0.78900
Cd32       Cd  0.20935861  0.09514559  0.46834335     1.37500
O33         O  0.27742138  0.13005980  0.44453396    -0.56100
O34         O  0.24199394  0.03292224  0.43768315    -0.54900
C35         C  0.16680981  0.16415263  0.51019704     0.78800
O36         O  0.22263368  0.02780971  0.51218083    -0.57300
O37         O  0.26247319  0.12103999  0.51982351    -0.55800
O38         O  0.13669248  0.07895711  0.44351043    -0.55700
O39         O  0.18400709  0.16502712  0.46915240    -0.54900
O40         O  0.31963238  0.38352574  0.38644244    -0.56100
C41         C  0.21198036  0.34508069  0.48847935     0.76500
O42         O  0.33042983  0.35023738  0.53424899    -0.57300
C43         C  0.35710484  0.39304603  0.39935023     0.76500
C44         C  0.25889177  0.46873120  0.47588747     0.78900
Cd45       Cd  0.29027360  0.38491502  0.46832529     1.37500
O46         O  0.22218764  0.35002834  0.44463508    -0.56100
O47         O  0.25768977  0.44715723  0.43767193    -0.54900
C48         C  0.33282685  0.31589998  0.51008232     0.78800
O49         O  0.27702818  0.45226330  0.51216348    -0.57300
O50         O  0.23719764  0.35902975  0.51990245    -0.55800
O51         O  0.36295125  0.40101366  0.44344548    -0.55700
O52         O  0.31559475  0.31502749  0.46906983    -0.54900
O53         O  0.10596564  0.42036682  0.63666368    -0.56100
C54         C  0.14450530  0.02797872  0.73833278     0.76500
O55         O  0.03752680  0.46283200  0.76230955    -0.57300
C56         C  0.09645253  0.38275617  0.64954743     0.76500
C57         C  0.17398777  0.40712965  0.75998526     0.78900
Cd58       Cd  0.10473747  0.44958285  0.71847411     1.37500
O59         O  0.13953040  0.01774029  0.69450114    -0.56100
O60         O  0.17455058  0.42418243  0.71882883    -0.54900
C61         C  0.02110978  0.48105250  0.72604375     0.78800
O62         O  0.13986464  0.40953020  0.78432630    -0.57300
O63         O  0.13044253  0.50281724  0.76982604    -0.55800
O64         O  0.08857798  0.37678352  0.69364472    -0.55700
O65         O  0.04267111  0.48236898  0.68787157    -0.54900
O66         O  0.39371890  0.05968031  0.63641684    -0.56100
C67         C  0.35516103  0.45210227  0.73812397     0.76500
O68         O  0.46206334  0.01732985  0.76221749    -0.57300
C69         C  0.40320442  0.09730166  0.64928060     0.76500
C70         C  0.32570049  0.07297897  0.75987989     0.78900
Cd71       Cd  0.39492582  0.03051319  0.71826390     1.37500
O72         O  0.36017394  0.46232145  0.69428910    -0.56100
O73         O  0.32511451  0.05593397  0.71872000    -0.54900
C74         C  0.47856511  0.99910230  0.72599435     0.78800
O75         O  0.35983786  0.07057545  0.78416556    -0.57300
O76         O  0.36917541  0.47729054  0.76960543    -0.55800
O77         O  0.41105509  0.10329694  0.69337295    -0.55700
O78         O  0.45708697  0.49776783  0.68777967    -0.54900
O79         O  0.36013318  0.26771715  0.57001679    -0.56100
C80         C  0.40320185  0.13274966  0.61495088     0.76500
O81         O  0.35981052  0.15951754  0.48014657    -0.57300
C82         C  0.35515531  0.27796401  0.52618942     0.76500
C83         C  0.47855681  0.23103407  0.53845451     0.78900
Cd84       Cd  0.39492788  0.19956580  0.54601668     1.37500
O85         O  0.39368983  0.17036260  0.62782851    -0.56100
O86         O  0.45699472  0.23234653  0.57662648    -0.54900
C87         C  0.32568381  0.15711672  0.50448162     0.78800
O88         O  0.46214063  0.21281735  0.50218470    -0.57300
O89         O  0.41107864  0.12676834  0.57085458    -0.55800
O90         O  0.36921771  0.25280965  0.49468649    -0.55700
O91         O  0.32511697  0.17416512  0.54564104    -0.54900
O92         O  0.10593577  0.30968197  0.62809166    -0.56100
C93         C  0.14450173  0.20209402  0.52635610     0.76500
O94         O  0.03760136  0.26731727  0.50229010    -0.57300
C95         C  0.09644872  0.34730148  0.61522223     0.76500
C96         C  0.17396727  0.32296990  0.50465457     0.78900
Cd97       Cd  0.10473642  0.28050188  0.54624640     1.37500
O98         O  0.13949022  0.21230480  0.57019513    -0.56100
O99         O  0.17454900  0.30592073  0.54581089    -0.54900
C100        C  0.02110052  0.24908552  0.53850964     0.78800
O101        O  0.13983329  0.32056787  0.48036208    -0.57300
O102        O  0.13048670  0.22728925  0.49488389    -0.55800
O103        O  0.08859754  0.35328821  0.57112949    -0.55700
O104        O  0.04257794  0.24774926  0.57672457    -0.54900
O105        O  0.43004512  0.34638348  0.88638051    -0.56100
C106        C  0.03765951  0.38483627  0.98838504     0.76500
O107        O  0.41918269  0.37965208  0.03422384    -0.57300
C108        C  0.39256631  0.33686527  0.89929288     0.76500
C109        C  0.49073222  0.26118402  0.97589187     0.78900
Cd110      Cd  0.45936491  0.34500102  0.96826829     1.37500
O111        O  0.02746928  0.37987883  0.94454430    -0.56100
O112        O  0.49194978  0.28272922  0.93765713    -0.54900
C113        C  0.41679802  0.41399977  0.01008124     0.78800
O114        O  0.47258114  0.27767955  0.01215639    -0.57300
O115        O  0.01242544  0.37090071  0.01981535    -0.55800
O116        O  0.38669859  0.32890681  0.94339030    -0.55700
O117        O  0.43404379  0.41488805  0.96906333    -0.56500
O118        O  0.06968658  0.13345841  0.88657471    -0.56100
C119        C  0.46198857  0.09491492  0.98847581     0.76500
O120        O  0.08040062  0.10007737  0.03439893    -0.57300
C121        C  0.10714145  0.14303084  0.89949659     0.76500
C122        C  0.00884180  0.21856938  0.97593397     0.78900
Cd123      Cd  0.04029155  0.13477627  0.96843493     1.37500
O124        O  0.47224857  0.09985825  0.94464622    -0.56100
O125        O  0.00765494  0.19696814  0.93773805    -0.54900
C126        C  0.08282421  0.06574873  0.01022005     0.78800
O127        O  0.02697823  0.20213450  0.01223044    -0.57300
O128        O  0.48716139  0.10887944  0.01993560    -0.55800
O129        O  0.11297051  0.15096921  0.94360168    -0.55700
O130        O  0.06563813  0.06489535  0.96918194    -0.54900
O131        O  0.31967926  0.34647456  0.87796234    -0.56100
C132        C  0.21200885  0.38500945  0.77609551     0.76500
O133        O  0.33044000  0.37982025  0.73011005    -0.57300
C134        C  0.35714033  0.33690760  0.86502995     0.76500
C135        C  0.25887878  0.26135119  0.78859377     0.78900
Cd136      Cd  0.29031121  0.34514884  0.79610679     1.37500
O137        O  0.22225661  0.38007197  0.81992159    -0.56100
O138        O  0.25767754  0.28294166  0.82679831    -0.54900
C139        C  0.33285213  0.41415922  0.75426909     0.78800
O140        O  0.27702433  0.27779827  0.75229757    -0.57300
O141        O  0.23719163  0.37104032  0.74462896    -0.55800
O142        O  0.36298625  0.32897215  0.82092228    -0.55700
O143        O  0.31565255  0.41502904  0.79531273    -0.54900
O144        O  0.18005055  0.13354277  0.87812276    -0.56100
C145        C  0.28768758  0.09508691  0.77606475     0.76500
O146        O  0.16923133  0.10025289  0.73029812    -0.57300
C147        C  0.14257827  0.14307202  0.86522258     0.76500
C148        C  0.24077184  0.21873600  0.78862571     0.78900
Cd149      Cd  0.20939394  0.13492140  0.79622783     1.37500
O150        O  0.27748751  0.10003956  0.81991107    -0.56100
O151        O  0.24198155  0.19717704  0.82684946    -0.54900
C152        C  0.16683168  0.06591233  0.75445465     0.78800
O153        O  0.22262805  0.20225427  0.75236161    -0.57300
O154        O  0.26246277  0.10902864  0.74464694    -0.55800
O155        O  0.13672685  0.15103619  0.82112845    -0.55700
O156        O  0.18406085  0.06503446  0.79546833    -0.54900
O157        O  0.35591331  0.05947719  0.12795088    -0.56100
C158        C  0.39447095  0.45193156  0.02622140     0.76500
O159        O  0.28752996  0.01711825  0.00222796    -0.57300
C160        C  0.34642696  0.09710041  0.11509736     0.76500
C161        C  0.42396357  0.07279150  0.00459365     0.78900
Cd162      Cd  0.35470057  0.03032276  0.04611096     1.37500
O163        O  0.38945705  0.46214647  0.07005806    -0.56100
O164        O  0.42451613  0.05572079  0.04573994    -0.54900
C165        C  0.27106842  0.99888611  0.03847233     0.78800
O166        O  0.38984636  0.07040384  0.98026823    -0.57300
O167        O  0.38044561  0.47711395  0.99474031    -0.55800
O168        O  0.33856410  0.10310291  0.07100883    -0.55700
O169        O  0.29258481  0.49755332  0.07665887    -0.54900
O170        O  0.11011257  0.01755280  0.07016474    -0.56100
C171        C  0.15318959  0.38254524  0.11506518     0.76500
O172        O  0.10981252  0.40934863  0.98024462    -0.57300
C173        C  0.10513203  0.02779983  0.02633685     0.76500
C174        C  0.22852519  0.48083322  0.03847902     0.78900
Cd175      Cd  0.14489496  0.44938215  0.04614666     1.37500
O176        O  0.14367823  0.42015406  0.12796061    -0.56100
O177        O  0.20700543  0.48214323  0.07668203    -0.54900
C178        C  0.07567230  0.40693899  0.00455175     0.78800
O179        O  0.21206787  0.46262008  0.00223288    -0.57300
O180        O  0.16105229  0.37657958  0.07096398    -0.55800
O181        O  0.11917697  0.50263461  0.99483692    -0.55700
O182        O  0.07508282  0.42397041  0.04571991    -0.54900
O183        O  0.38954217  0.26749209  0.19442849    -0.56100
C184        C  0.34644538  0.13254043  0.14943817     0.76500
O185        O  0.38984998  0.15926535  0.28427086    -0.57300
C186        C  0.39451926  0.27773076  0.23825946     0.76500
C187        C  0.27112145  0.23078834  0.22602455     0.78900
Cd188      Cd  0.35475104  0.19932925  0.21840462     1.37500
O189        O  0.35596929  0.17015305  0.13657446    -0.56100
O190        O  0.29266723  0.23211366  0.18784207    -0.54900
C191        C  0.42398037  0.15685483  0.25994661     0.78800
O192        O  0.28755467  0.21256162  0.26227636    -0.57300
O193        O  0.33857590  0.12654931  0.19353328    -0.55800
O194        O  0.38046668  0.25256359  0.26975174    -0.55700
O195        O  0.42455702  0.17389606  0.21878405    -0.54900
O196        O  0.14372910  0.30946408  0.13649228    -0.56100
C197        C  0.10517872  0.20185302  0.23817230     0.76500
O198        O  0.21208902  0.26705655  0.26224037    -0.57300
C199        C  0.15320569  0.34708251  0.14937728     0.76500
C200        C  0.07568825  0.32270276  0.25989592     0.78900
Cd201      Cd  0.14494006  0.28025896  0.21831780     1.37500
O202        O  0.11019118  0.21207393  0.19433712    -0.56100
O203        O  0.07511911  0.30564440  0.21874210    -0.54900
C204        C  0.22857661  0.24883770  0.22600265     0.78800
O205        O  0.10981655  0.32031114  0.28420026    -0.57300
O206        O  0.11920037  0.22703406  0.26965712    -0.55800
O207        O  0.16106031  0.35305912  0.19347225    -0.55700
O208        O  0.20708479  0.24751398  0.18779687    -0.54900
O209        O  0.42999766  0.88341065  0.37800706    -0.56100
C210        C  0.03767074  0.84482242  0.27604575     0.76500
O211        O  0.41926086  0.84999910  0.23020094    -0.57300
C212        C  0.39254546  0.89299028  0.36508169     0.76500
C213        C  0.49084536  0.96848303  0.28858813     0.78900
Cd214      Cd  0.45938726  0.88469795  0.29614103     1.37500
O215        O  0.02743888  0.84977221  0.31988372    -0.56100
O216        O  0.49205133  0.94689673  0.32679313    -0.54900
C217        C  0.41683166  0.81567409  0.25438230     0.78800
O218        O  0.47268758  0.95203571  0.25231220    -0.57300
O219        O  0.01247819  0.85878281  0.24460478    -0.55800
O220        O  0.38671909  0.90092006  0.32097460    -0.55700
O221        O  0.43402047  0.81482025  0.29541890    -0.54900
O222        O  0.06963779  0.59634227  0.37804420    -0.56100
C223        C  0.46199917  0.63474635  0.27608663     0.76500
O224        O  0.08047673  0.62956458  0.23017683    -0.57300
C225        C  0.10711916  0.58682920  0.36513582     0.76500
C226        C  0.00895462  0.51109712  0.28859886     0.78900
Cd227      Cd  0.04031182  0.59492273  0.29616162     1.37500
O228        O  0.47221470  0.62979975  0.31992120    -0.56100
O229        O  0.00775443  0.53265938  0.32682345    -0.54900
C230        C  0.08285653  0.66391841  0.25431201     0.78800
O231        O  0.02708518  0.52757813  0.25231390    -0.57300
O232        O  0.48721494  0.62080124  0.24464210    -0.55800
O233        O  0.11298922  0.57885865  0.32104082    -0.55700
O234        O  0.06561438  0.66481150  0.29533191    -0.54900
O235        O  0.18000269  0.59646066  0.38647691    -0.56100
C236        C  0.28766302  0.63500116  0.48836134     0.76500
O237        O  0.16922464  0.62981080  0.53434624    -0.57300
C238        C  0.14254211  0.58688694  0.39940329     0.76500
C239        C  0.24078535  0.51134711  0.47589618     0.78900
Cd240      Cd  0.20935859  0.59514562  0.46834338     1.37500
O241        O  0.27742139  0.63005984  0.44453387    -0.56100
O242        O  0.24199386  0.53292219  0.43768308    -0.54900
C243        C  0.16680986  0.66415270  0.51019703     0.78800
O244        O  0.22263368  0.52780983  0.51218079    -0.57300
O245        O  0.26247324  0.62104004  0.51982345    -0.55800
O246        O  0.13669245  0.57895695  0.44351049    -0.55700
O247        O  0.18400700  0.66502713  0.46915232    -0.54900
O248        O  0.31963236  0.88352577  0.38644248    -0.56100
C249        C  0.21198030  0.84508061  0.48847914     0.76500
O250        O  0.33042970  0.85023749  0.53424895    -0.57300
C251        C  0.35710456  0.89304607  0.39935000     0.76500
C252        C  0.25889164  0.96873118  0.47588741     0.78900
Cd253      Cd  0.29027357  0.88491508  0.46832527     1.37500
O254        O  0.22218759  0.85002851  0.44463519    -0.56100
O255        O  0.25768975  0.94715726  0.43767202    -0.54900
C256        C  0.33282674  0.81589981  0.51008187     0.78800
O257        O  0.27702806  0.95226339  0.51216361    -0.57300
O258        O  0.23719778  0.85902957  0.51990256    -0.55800
O259        O  0.36295121  0.90101369  0.44344553    -0.55700
O260        O  0.31559489  0.81502751  0.46906981    -0.54900
O261        O  0.10596553  0.92036679  0.63666360    -0.56100
C262        C  0.14450532  0.52797862  0.73833285     0.76500
O263        O  0.03752680  0.96283205  0.76230953    -0.57300
C264        C  0.09645246  0.88275620  0.64954730     0.76500
C265        C  0.17398772  0.90712974  0.75998528     0.78900
Cd266      Cd  0.10473742  0.94958292  0.71847410     1.37500
O267        O  0.13953031  0.51774026  0.69450115    -0.56100
O268        O  0.17455052  0.92418250  0.71882884    -0.54900
C269        C  0.02110978  0.98105262  0.72604371     0.78800
O270        O  0.13986458  0.90953028  0.78432630    -0.57300
O271        O  0.13044245  0.00281742  0.76982606    -0.55800
O272        O  0.08857789  0.87678356  0.69364467    -0.55700
O273        O  0.04267103  0.98236917  0.68787158    -0.54900
O274        O  0.39371884  0.55968022  0.63641687    -0.56100
C275        C  0.35516112  0.95210220  0.73812421     0.76500
O276        O  0.46206327  0.51732964  0.76221755    -0.57300
C277        C  0.40320435  0.59730159  0.64928061     0.76500
C278        C  0.32570042  0.57297879  0.75987987     0.78900
Cd279      Cd  0.39492581  0.53051319  0.71826389     1.37500
O280        O  0.36017386  0.96232146  0.69428906    -0.56100
O281        O  0.32511445  0.55593393  0.71872009    -0.54900
C282        C  0.47856510  0.49910230  0.72599440     0.78800
O283        O  0.35983789  0.57057532  0.78416566    -0.57300
O284        O  0.36917546  0.97729033  0.76960541    -0.55800
O285        O  0.41105510  0.60329697  0.69337289    -0.55700
O286        O  0.45708691  0.99776768  0.68777974    -0.54900
O287        O  0.36013326  0.76771719  0.57001654    -0.56100
C288        C  0.40320172  0.63274956  0.61495092     0.76500
O289        O  0.35981041  0.65951740  0.48014655    -0.57300
C290        C  0.35515531  0.77796406  0.52618976     0.76500
C291        C  0.47855670  0.73103420  0.53845460     0.78900
Cd292      Cd  0.39492790  0.69956573  0.54601670     1.37500
O293        O  0.39368980  0.67036257  0.62782852    -0.56100
O294        O  0.45699473  0.73234645  0.57662654    -0.54900
C295        C  0.32568381  0.65711674  0.50448150     0.78800
O296        O  0.46214067  0.71281728  0.50218475    -0.57300
O297        O  0.41107870  0.62676823  0.57085465    -0.55800
O298        O  0.36921770  0.75280940  0.49468631    -0.55700
O299        O  0.32511694  0.67416515  0.54564101    -0.54900
O300        O  0.10593573  0.80968189  0.62809152    -0.56100
C301        C  0.14450174  0.70209400  0.52635605     0.76500
O302        O  0.03760128  0.76731724  0.50229008    -0.57300
C303        C  0.09644866  0.84730136  0.61522221     0.76500
C304        C  0.17396743  0.82296986  0.50465479     0.78900
Cd305      Cd  0.10473638  0.78050188  0.54624626     1.37500
O306        O  0.13949014  0.71230478  0.57019505    -0.56100
O307        O  0.17454895  0.80592080  0.54581087    -0.54900
C308        C  0.02110044  0.74908561  0.53850949     0.78800
O309        O  0.13983329  0.82056785  0.48036196    -0.57300
O310        O  0.13048665  0.72728914  0.49488377    -0.55800
O311        O  0.08859745  0.85328821  0.57112941    -0.55700
O312        O  0.04257794  0.74774929  0.57672457    -0.54900
O313        O  0.43004518  0.84638336  0.88638048    -0.56100
C314        C  0.03765949  0.88483611  0.98838520     0.76500
O315        O  0.41918265  0.87965197  0.03422379    -0.57300
C316        C  0.39256620  0.83686515  0.89929301     0.76500
C317        C  0.49073215  0.76118408  0.97589185     0.78900
Cd318      Cd  0.45936486  0.84500103  0.96826827     1.37500
O319        O  0.02746938  0.87987877  0.94454425    -0.56100
O320        O  0.49194970  0.78272926  0.93765715    -0.54900
C321        C  0.41679809  0.91400000  0.01008092     0.78800
O322        O  0.47258105  0.77767959  0.01215642    -0.57300
O323        O  0.01242542  0.87090083  0.01981530    -0.55800
O324        O  0.38669856  0.82890692  0.94339027    -0.55700
O325        O  0.43404387  0.91488816  0.96906346    -0.56500
O326        O  0.06968654  0.63345844  0.88657476    -0.56100
C327        C  0.46198846  0.59491501  0.98847583     0.76500
O328        O  0.08040057  0.60007728  0.03439901    -0.57300
C329        C  0.10714115  0.64303095  0.89949641     0.76500
C330        C  0.00884171  0.71856955  0.97593399     0.78900
Cd331      Cd  0.04029152  0.63477631  0.96843495     1.37500
O332        O  0.47224848  0.59985833  0.94464624    -0.56100
O333        O  0.00765484  0.69696823  0.93773805    -0.54900
C334        C  0.08282432  0.56574872  0.01022003     0.78800
O335        O  0.02697813  0.70213460  0.01223044    -0.57300
O336        O  0.48716130  0.60887952  0.01993561    -0.55800
O337        O  0.11297045  0.65096924  0.94360174    -0.55700
O338        O  0.06563822  0.56489539  0.96918188    -0.54900
O339        O  0.31967910  0.84647434  0.87796232    -0.56100
C340        C  0.21200881  0.88500951  0.77609553     0.76500
O341        O  0.33043999  0.87982028  0.73011002    -0.57300
C342        C  0.35714041  0.83690750  0.86502981     0.76500
C343        C  0.25887872  0.76135123  0.78859421     0.78900
Cd344      Cd  0.29031119  0.84514877  0.79610677     1.37500
O345        O  0.22225657  0.88007197  0.81992160    -0.56100
O346        O  0.25767757  0.78294168  0.82679828    -0.54900
C347        C  0.33285220  0.91415897  0.75426893     0.78800
O348        O  0.27702427  0.77779825  0.75229750    -0.57300
O349        O  0.23719158  0.87104036  0.74462898    -0.55800
O350        O  0.36298626  0.82897211  0.82092229    -0.55700
O351        O  0.31565269  0.91502888  0.79531288    -0.54900
O352        O  0.18005045  0.63354283  0.87812273    -0.56100
C353        C  0.28768758  0.59508667  0.77606485     0.76500
O354        O  0.16923135  0.60025300  0.73029812    -0.57300
C355        C  0.14257837  0.64307205  0.86522279     0.76500
C356        C  0.24077176  0.71873596  0.78862522     0.78900
Cd357      Cd  0.20939391  0.63492141  0.79622779     1.37500
O358        O  0.27748747  0.60003941  0.81991105    -0.56100
O359        O  0.24198143  0.69717697  0.82684951    -0.54900
C360        C  0.16683166  0.56591245  0.75445461     0.78800
O361        O  0.22262814  0.70225418  0.75236158    -0.57300
O362        O  0.26246274  0.60902860  0.74464694    -0.55800
O363        O  0.13672680  0.65103623  0.82112838    -0.55700
O364        O  0.18406078  0.56503454  0.79546835    -0.54900
O365        O  0.35591328  0.55947723  0.12795094    -0.56100
C366        C  0.39447085  0.95193144  0.02622179     0.76500
O367        O  0.28752993  0.51711805  0.00222800    -0.57300
C368        C  0.34642716  0.59710023  0.11509756     0.76500
C369        C  0.42396345  0.57279156  0.00459366     0.78900
Cd370      Cd  0.35470053  0.53032266  0.04611096     1.37500
O371        O  0.38945702  0.96214655  0.07005796    -0.56100
O372        O  0.42451605  0.55572080  0.04573993    -0.54900
C373        C  0.27106830  0.49888600  0.03847228     0.78800
O374        O  0.38984625  0.57040383  0.98026824    -0.57300
O375        O  0.38044553  0.97711407  0.99474024    -0.55800
O376        O  0.33856415  0.60310277  0.07100873    -0.55700
O377        O  0.29258489  0.99755336  0.07665876    -0.54900
O378        O  0.11011273  0.51755286  0.07016476    -0.56100
C379        C  0.15318946  0.88254565  0.11506566     0.76500
O380        O  0.10981253  0.90934853  0.98024458    -0.57300
C381        C  0.10513211  0.52779991  0.02633683     0.76500
C382        C  0.22852530  0.98083331  0.03847897     0.78900
Cd383      Cd  0.14489499  0.94938219  0.04614667     1.37500
O384        O  0.14367820  0.92015388  0.12796060    -0.56100
O385        O  0.20700546  0.98214327  0.07668208    -0.54900
C386        C  0.07567244  0.90693871  0.00455157     0.78800
O387        O  0.21206795  0.96262028  0.00223288    -0.57300
O388        O  0.16105249  0.87657961  0.07096388    -0.55800
O389        O  0.11917716  0.00263466  0.99483692    -0.55700
O390        O  0.07508286  0.92397030  0.04571988    -0.54900
O391        O  0.38954217  0.76749207  0.19442846    -0.56100
C392        C  0.34644545  0.63254051  0.14943797     0.76500
O393        O  0.38985009  0.65926531  0.28427099    -0.57300
C394        C  0.39451928  0.77773073  0.23825953     0.76500
C395        C  0.27112146  0.73078842  0.22602458     0.78900
Cd396      Cd  0.35475098  0.69932915  0.21840462     1.37500
O397        O  0.35596923  0.67015291  0.13657449    -0.56100
O398        O  0.29266723  0.73211363  0.18784206    -0.54900
C399        C  0.42398052  0.65685484  0.25994648     0.78800
O400        O  0.28755456  0.71256170  0.26227638    -0.57300
O401        O  0.33857581  0.62654911  0.19353328    -0.55800
O402        O  0.38046674  0.75256343  0.26975169    -0.55700
O403        O  0.42455691  0.67389602  0.21878406    -0.54900
O404        O  0.14372911  0.80946422  0.13649226    -0.56100
C405        C  0.10517869  0.70185294  0.23817216     0.76500
O406        O  0.21208900  0.76705661  0.26224043    -0.57300
C407        C  0.15320557  0.84708208  0.14937673     0.76500
C408        C  0.07568819  0.82270292  0.25989600     0.78900
Cd409      Cd  0.14493998  0.78025898  0.21831781     1.37500
O410        O  0.11019102  0.71207401  0.19433722    -0.56100
O411        O  0.07511899  0.80564443  0.21874213    -0.54900
C412        C  0.22857662  0.74883779  0.22600263     0.78800
O413        O  0.10981643  0.82031118  0.28420028    -0.57300
O414        O  0.11920039  0.72703397  0.26965724    -0.55800
O415        O  0.16106030  0.85305915  0.19347233    -0.55700
O416        O  0.20708479  0.74751403  0.18779693    -0.54900
O417        O  0.92999768  0.38341050  0.37800698    -0.56100
C418        C  0.53767083  0.34482233  0.27604603     0.76500
O419        O  0.91926087  0.34999912  0.23020102    -0.57300
C420        C  0.89254555  0.39299030  0.36508174     0.76500
C421        C  0.99084529  0.46848283  0.28858848     0.78900
Cd422      Cd  0.95938726  0.38469794  0.29614106     1.37500
O423        O  0.52743889  0.34977218  0.31988360    -0.56100
O424        O  0.99205136  0.44689662  0.32679313    -0.54900
C425        C  0.91683163  0.31567404  0.25438236     0.78800
O426        O  0.97268739  0.45203555  0.25231221    -0.57300
O427        O  0.51247819  0.35878278  0.24460465    -0.55800
O428        O  0.88671906  0.40092023  0.32097464    -0.55700
O429        O  0.93402045  0.31482025  0.29541898    -0.54900
O430        O  0.56963773  0.09634237  0.37804415    -0.56100
C431        C  0.96199904  0.13474638  0.27608666     0.76500
O432        O  0.58047667  0.12956463  0.23017690    -0.57300
C433        C  0.60711928  0.08682912  0.36513564     0.76500
C434        C  0.50895446  0.01109727  0.28859903     0.78900
Cd435      Cd  0.54031177  0.09492279  0.29616165     1.37500
O436        O  0.97221460  0.12979980  0.31992113    -0.56100
O437        O  0.50775437  0.03265934  0.32682334    -0.54900
C438        C  0.58285649  0.16391831  0.25431185     0.78800
O439        O  0.52708518  0.02757824  0.25231378    -0.57300
O440        O  0.98721484  0.12080126  0.24464203    -0.55800
O441        O  0.61298922  0.07885868  0.32104081    -0.55700
O442        O  0.56561423  0.16481155  0.29533192    -0.54900
O443        O  0.68000282  0.09646055  0.38647685    -0.56100
C444        C  0.78766298  0.13500102  0.48836139     0.76500
O445        O  0.66922458  0.12981074  0.53434624    -0.57300
C446        C  0.64254200  0.08688690  0.39940344     0.76500
C447        C  0.74078534  0.01134706  0.47589617     0.78900
Cd448      Cd  0.70935855  0.09514559  0.46834338     1.37500
O449        O  0.77742133  0.13005982  0.44453388    -0.56100
O450        O  0.74199379  0.03292218  0.43768315    -0.54900
C451        C  0.66680978  0.16415265  0.51019704     0.78800
O452        O  0.72263370  0.02780975  0.51218091    -0.57300
O453        O  0.76247316  0.12104003  0.51982344    -0.55800
O454        O  0.63669246  0.07895708  0.44351041    -0.55700
O455        O  0.68400694  0.16502708  0.46915235    -0.54900
O456        O  0.81963243  0.38352580  0.38644242    -0.56100
C457        C  0.71198026  0.34508063  0.48847918     0.76500
O458        O  0.83042983  0.35023743  0.53424900    -0.57300
C459        C  0.85710459  0.39304597  0.39934998     0.76500
C460        C  0.75889169  0.46873119  0.47588741     0.78900
Cd461      Cd  0.79027355  0.38491501  0.46832530     1.37500
O462        O  0.72218763  0.35002837  0.44463518    -0.56100
O463        O  0.75768969  0.44715722  0.43767198    -0.54900
C464        C  0.83282672  0.31589994  0.51008222     0.78800
O465        O  0.77702813  0.45226326  0.51216352    -0.57300
O466        O  0.73719763  0.35902964  0.51990257    -0.55800
O467        O  0.86295113  0.40101363  0.44344557    -0.55700
O468        O  0.81559475  0.31502750  0.46906986    -0.54900
O469        O  0.60596560  0.42036680  0.63666369    -0.56100
C470        C  0.64450526  0.02797869  0.73833285     0.76500
O471        O  0.53752695  0.46283193  0.76230952    -0.57300
C472        C  0.59645250  0.38275618  0.64954738     0.76500
C473        C  0.67398772  0.40712962  0.75998528     0.78900
Cd474      Cd  0.60473750  0.44958285  0.71847410     1.37500
O475        O  0.63953043  0.01774033  0.69450110    -0.56100
O476        O  0.67455059  0.42418239  0.71882885    -0.54900
C477        C  0.52110991  0.48105251  0.72604370     0.78800
O478        O  0.63986459  0.40953020  0.78432630    -0.57300
O479        O  0.63044257  0.50281723  0.76982601    -0.55800
O480        O  0.58857792  0.37678352  0.69364472    -0.55700
O481        O  0.54267118  0.48236902  0.68787159    -0.54900
O482        O  0.89371907  0.05968030  0.63641680    -0.56100
C483        C  0.85516112  0.45210228  0.73812398     0.76500
O484        O  0.96206330  0.01732981  0.76221749    -0.57300
C485        C  0.90320448  0.09730164  0.64928057     0.76500
C486        C  0.82570045  0.07297898  0.75987986     0.78900
Cd487      Cd  0.89492575  0.03051320  0.71826390     1.37500
O488        O  0.86017392  0.46232155  0.69428908    -0.56100
O489        O  0.82511442  0.05593404  0.71872006    -0.54900
C490        C  0.97856508  0.99910230  0.72599439     0.78800
O491        O  0.85983786  0.07057538  0.78416563    -0.57300
O492        O  0.86917555  0.47729047  0.76960540    -0.55800
O493        O  0.91105502  0.10329695  0.69337300    -0.55700
O494        O  0.95708702  0.49776778  0.68777973    -0.54900
O495        O  0.86013328  0.26771729  0.57001673    -0.56100
C496        C  0.90320196  0.13274969  0.61495091     0.76500
O497        O  0.85981038  0.15951746  0.48014659    -0.57300
C498        C  0.85515523  0.27796407  0.52618953     0.76500
C499        C  0.97855681  0.23103406  0.53845447     0.78900
Cd500      Cd  0.89492789  0.19956581  0.54601669     1.37500
O501        O  0.89368993  0.17036258  0.62782850    -0.56100
O502        O  0.95699471  0.23234647  0.57662648    -0.54900
C503        C  0.82568382  0.15711668  0.50448150     0.78800
O504        O  0.96214068  0.21281742  0.50218466    -0.57300
O505        O  0.91107875  0.12676836  0.57085456    -0.55800
O506        O  0.86921767  0.25280963  0.49468645    -0.55700
O507        O  0.82511692  0.17416515  0.54564106    -0.54900
O508        O  0.60593557  0.30968189  0.62809153    -0.56100
C509        C  0.64450166  0.20209400  0.52635607     0.76500
O510        O  0.53760122  0.26731731  0.50229005    -0.57300
C511        C  0.59644868  0.34730144  0.61522219     0.76500
C512        C  0.67396741  0.32296987  0.50465473     0.78900
Cd513      Cd  0.60473634  0.28050191  0.54624623     1.37500
O514        O  0.63949008  0.21230483  0.57019506    -0.56100
O515        O  0.67454898  0.30592078  0.54581087    -0.54900
C516        C  0.52110046  0.24908557  0.53850958     0.78800
O517        O  0.63983331  0.32056785  0.48036196    -0.57300
O518        O  0.63048660  0.22728915  0.49488378    -0.55800
O519        O  0.58859757  0.35328827  0.57112939    -0.55700
O520        O  0.54257792  0.24774935  0.57672454    -0.54900
O521        O  0.93004517  0.34638350  0.88638039    -0.56100
C522        C  0.53765964  0.38483624  0.98838502     0.76500
O523        O  0.91918267  0.37965208  0.03422386    -0.57300
C524        C  0.89256614  0.33686521  0.89929302     0.76500
C525        C  0.99073232  0.26118401  0.97589181     0.78900
Cd526      Cd  0.95936485  0.34500098  0.96826828     1.37500
O527        O  0.52746939  0.37987882  0.94454429    -0.56100
O528        O  0.99194968  0.28272915  0.93765709    -0.54900
C529        C  0.91679816  0.41399982  0.01008119     0.78800
O530        O  0.97258123  0.27767956  0.01215644    -0.57300
O531        O  0.51242556  0.37090070  0.01981533    -0.55800
O532        O  0.88669858  0.32890681  0.94339014    -0.55700
O533        O  0.93404382  0.41488805  0.96906335    -0.56500
O534        O  0.56968647  0.13345839  0.88657480    -0.56100
C535        C  0.96198839  0.09491493  0.98847566     0.76500
O536        O  0.58040048  0.10007730  0.03439902    -0.57300
C537        C  0.60714122  0.14303081  0.89949648     0.76500
C538        C  0.50884169  0.21856935  0.97593391     0.78900
Cd539      Cd  0.54029150  0.13477628  0.96843492     1.37500
O540        O  0.97224855  0.09985825  0.94464625    -0.56100
O541        O  0.50765485  0.19696813  0.93773809    -0.54900
C542        C  0.58282425  0.06574876  0.01022011     0.78800
O543        O  0.52697815  0.20213447  0.01223047    -0.57300
O544        O  0.98716135  0.10887943  0.01993562    -0.55800
O545        O  0.61297046  0.15096925  0.94360172    -0.55700
O546        O  0.56563814  0.06489540  0.96918191    -0.54900
O547        O  0.81967927  0.34647459  0.87796239    -0.56100
C548        C  0.71200876  0.38500942  0.77609553     0.76500
O549        O  0.83043988  0.37982031  0.73011003    -0.57300
C550        C  0.85714056  0.33690756  0.86502974     0.76500
C551        C  0.75887891  0.26135116  0.78859363     0.78900
Cd552      Cd  0.79031116  0.34514886  0.79610683     1.37500
O553        O  0.72225651  0.38007197  0.81992161    -0.56100
O554        O  0.75767738  0.28294175  0.82679830    -0.54900
C555        C  0.83285211  0.41415920  0.75426908     0.78800
O556        O  0.77702438  0.27779826  0.75229765    -0.57300
O557        O  0.73719154  0.37104031  0.74462897    -0.55800
O558        O  0.86298628  0.32897212  0.82092231    -0.55700
O559        O  0.81565263  0.41502899  0.79531285    -0.54900
O560        O  0.68005052  0.13354281  0.87812273    -0.56100
C561        C  0.78768757  0.09508691  0.77606479     0.76500
O562        O  0.66923132  0.10025289  0.73029808    -0.57300
C563        C  0.64257835  0.14307201  0.86522274     0.76500
C564        C  0.74077202  0.21873595  0.78862585     0.78900
Cd565      Cd  0.70939389  0.13492141  0.79622781     1.37500
O566        O  0.77748742  0.10003946  0.81991104    -0.56100
O567        O  0.74198154  0.19717702  0.82684942    -0.54900
C568        C  0.66683156  0.06591238  0.75445458     0.78800
O569        O  0.72262803  0.20225427  0.75236159    -0.57300
O570        O  0.76246268  0.10902869  0.74464693    -0.55800
O571        O  0.63672682  0.15103624  0.82112844    -0.55700
O572        O  0.68406088  0.06503448  0.79546830    -0.54900
O573        O  0.85591329  0.05947720  0.12795088    -0.56100
C574        C  0.89447103  0.45193155  0.02622149     0.76500
O575        O  0.78752991  0.01711831  0.00222801    -0.57300
C576        C  0.84642715  0.09710035  0.11509747     0.76500
C577        C  0.92396356  0.07279151  0.00459379     0.78900
Cd578      Cd  0.85470050  0.03032275  0.04611096     1.37500
O579        O  0.88945705  0.46214638  0.07005802    -0.56100
O580        O  0.92451606  0.05572080  0.04573988    -0.54900
C581        C  0.77106839  0.99888615  0.03847231     0.78800
O582        O  0.88984626  0.07040384  0.98026818    -0.57300
O583        O  0.88044575  0.47711402  0.99474028    -0.55800
O584        O  0.83856409  0.10310293  0.07100883    -0.55700
O585        O  0.79258489  0.49755320  0.07665872    -0.54900
O586        O  0.61011267  0.01755285  0.07016478    -0.56100
C587        C  0.65318951  0.38254532  0.11506529     0.76500
O588        O  0.60981263  0.40934862  0.98024461    -0.57300
C589        C  0.60513210  0.02779981  0.02633679     0.76500
C590        C  0.72852523  0.48083328  0.03847899     0.78900
Cd591      Cd  0.64489496  0.44938217  0.04614667     1.37500
O592        O  0.64367818  0.42015402  0.12796058    -0.56100
O593        O  0.70700541  0.48214319  0.07668209    -0.54900
C594        C  0.57567240  0.40693895  0.00455173     0.78800
O595        O  0.71206790  0.46262020  0.00223289    -0.57300
O596        O  0.66105247  0.37657961  0.07096398    -0.55800
O597        O  0.61917699  0.50263468  0.99483691    -0.55700
O598        O  0.57508286  0.42397036  0.04571988    -0.54900
O599        O  0.88954204  0.26749213  0.19442849    -0.56100
C600        C  0.84644552  0.13254051  0.14943807     0.76500
O601        O  0.88984995  0.15926530  0.28427092    -0.57300
C602        C  0.89451917  0.27773074  0.23825945     0.76500
C603        C  0.77112138  0.23078836  0.22602458     0.78900
Cd604      Cd  0.85475097  0.19932925  0.21840462     1.37500
O605        O  0.85596935  0.17015302  0.13657451    -0.56100
O606        O  0.79266715  0.23211363  0.18784205    -0.54900
C607        C  0.92398046  0.15685490  0.25994641     0.78800
O608        O  0.78755453  0.21256171  0.26227639    -0.57300
O609        O  0.83857572  0.12654932  0.19353327    -0.55800
O610        O  0.88046675  0.25256345  0.26975172    -0.55700
O611        O  0.92455693  0.17389612  0.21878413    -0.54900
O612        O  0.64372912  0.30946410  0.13649227    -0.56100
C613        C  0.60517869  0.20185303  0.23817234     0.76500
O614        O  0.71208896  0.26705652  0.26224042    -0.57300
C615        C  0.65320556  0.34708244  0.14937718     0.76500
C616        C  0.57568801  0.32270277  0.25989578     0.78900
Cd617      Cd  0.64493997  0.28025897  0.21831781     1.37500
O618        O  0.61019100  0.21207401  0.19433711    -0.56100
O619        O  0.57511896  0.30564453  0.21874214    -0.54900
C620        C  0.72857655  0.24883769  0.22600263     0.78800
O621        O  0.60981647  0.32031114  0.28420033    -0.57300
O622        O  0.61920037  0.22703397  0.26965713    -0.55800
O623        O  0.66106032  0.35305911  0.19347227    -0.55700
O624        O  0.70708473  0.24751395  0.18779692    -0.54900
O625        O  0.92999764  0.88341059  0.37800702    -0.56100
C626        C  0.53767080  0.84482242  0.27604598     0.76500
O627        O  0.91926084  0.84999907  0.23020097    -0.57300
C628        C  0.89254543  0.89299028  0.36508169     0.76500
C629        C  0.99084536  0.96848299  0.28858843     0.78900
Cd630      Cd  0.95938721  0.88469798  0.29614105     1.37500
O631        O  0.52743896  0.84977220  0.31988362    -0.56100
O632        O  0.99205128  0.94689676  0.32679319    -0.54900
C633        C  0.91683153  0.81567413  0.25438220     0.78800
O634        O  0.97268761  0.95203563  0.25231214    -0.57300
O635        O  0.51247821  0.85878298  0.24460470    -0.55800
O636        O  0.88671896  0.90092010  0.32097463    -0.55700
O637        O  0.93402047  0.81482024  0.29541894    -0.54900
O638        O  0.56963772  0.59634228  0.37804421    -0.56100
C639        C  0.96199925  0.63474632  0.27608652     0.76500
O640        O  0.58047666  0.62956456  0.23017682    -0.57300
C641        C  0.60711920  0.58682920  0.36513576     0.76500
C642        C  0.50895453  0.51109711  0.28859886     0.78900
Cd643      Cd  0.54031176  0.59492274  0.29616164     1.37500
O644        O  0.97221481  0.62979972  0.31992120    -0.56100
O645        O  0.50775435  0.53265938  0.32682348    -0.54900
C646        C  0.58285641  0.66391844  0.25431204     0.78800
O647        O  0.52708512  0.52757816  0.25231393    -0.57300
O648        O  0.98721500  0.62080123  0.24464212    -0.55800
O649        O  0.61298918  0.57885862  0.32104083    -0.55700
O650        O  0.56561432  0.66481149  0.29533191    -0.54900
O651        O  0.68000274  0.59646069  0.38647688    -0.56100
C652        C  0.78766299  0.63500114  0.48836141     0.76500
O653        O  0.66922459  0.62981083  0.53434621    -0.57300
C654        C  0.64254206  0.58688690  0.39940332     0.76500
C655        C  0.74078526  0.51134715  0.47589624     0.78900
Cd656      Cd  0.70935853  0.59514563  0.46834336     1.37500
O657        O  0.77742128  0.63005978  0.44453389    -0.56100
O658        O  0.74199395  0.53292231  0.43768313    -0.54900
C659        C  0.66680971  0.66415269  0.51019709     0.78800
O660        O  0.72263355  0.52780982  0.51218073    -0.57300
O661        O  0.76247318  0.62104016  0.51982349    -0.55800
O662        O  0.63669239  0.57895689  0.44351036    -0.55700
O663        O  0.68400694  0.66502715  0.46915229    -0.54900
O664        O  0.81963235  0.88352582  0.38644243    -0.56100
C665        C  0.71198029  0.84508063  0.48847934     0.76500
O666        O  0.83042970  0.85023754  0.53424895    -0.57300
C667        C  0.85710453  0.89304607  0.39935000     0.76500
C668        C  0.75889171  0.96873121  0.47588753     0.78900
Cd669      Cd  0.79027351  0.88491507  0.46832527     1.37500
O670        O  0.72218752  0.85002851  0.44463511    -0.56100
O671        O  0.75768960  0.94715720  0.43767202    -0.54900
C672        C  0.83282682  0.81589988  0.51008187     0.78800
O673        O  0.77702810  0.95226344  0.51216353    -0.57300
O674        O  0.73719771  0.85902959  0.51990246    -0.55800
O675        O  0.86295107  0.90101367  0.44344555    -0.55700
O676        O  0.81559491  0.81502758  0.46906980    -0.54900
O677        O  0.60596567  0.92036682  0.63666359    -0.56100
C678        C  0.64450518  0.52797861  0.73833298     0.76500
O679        O  0.53752694  0.96283203  0.76230953    -0.57300
C680        C  0.59645267  0.88275625  0.64954730     0.76500
C681        C  0.67398766  0.90712970  0.75998548     0.78900
Cd682      Cd  0.60473751  0.94958293  0.71847409     1.37500
O683        O  0.63953038  0.51774024  0.69450111    -0.56100
O684        O  0.67455055  0.92418257  0.71882889    -0.54900
C685        C  0.52110982  0.98105257  0.72604373     0.78800
O686        O  0.63986468  0.90953024  0.78432631    -0.57300
O687        O  0.63044264  0.00281729  0.76982602    -0.55800
O688        O  0.58857802  0.87678361  0.69364468    -0.55700
O689        O  0.54267117  0.98236913  0.68787159    -0.54900
O690        O  0.89371898  0.55968021  0.63641685    -0.56100
C691        C  0.85516099  0.95210222  0.73812419     0.76500
O692        O  0.96206333  0.51732962  0.76221763    -0.57300
C693        C  0.90320458  0.59730164  0.64928067     0.76500
C694        C  0.82570042  0.57297891  0.75987977     0.78900
Cd695      Cd  0.89492588  0.53051321  0.71826389     1.37500
O696        O  0.86017378  0.96232148  0.69428906    -0.56100
O697        O  0.82511463  0.55593403  0.71871999    -0.54900
C698        C  0.97856511  0.49910225  0.72599436     0.78800
O699        O  0.85983786  0.57057537  0.78416568    -0.57300
O700        O  0.86917540  0.97729035  0.76960542    -0.55800
O701        O  0.91105524  0.60329696  0.69337287    -0.55700
O702        O  0.95708688  0.99776763  0.68777974    -0.54900
O703        O  0.86013322  0.76771718  0.57001658    -0.56100
C704        C  0.90320195  0.63274952  0.61495085     0.76500
O705        O  0.85981039  0.65951745  0.48014658    -0.57300
C706        C  0.85515526  0.77796406  0.52618971     0.76500
C707        C  0.97855675  0.73103418  0.53845459     0.78900
Cd708      Cd  0.89492784  0.69956571  0.54601669     1.37500
O709        O  0.89368983  0.67036256  0.62782852    -0.56100
O710        O  0.95699466  0.73234646  0.57662647    -0.54900
C711        C  0.82568382  0.65711669  0.50448149     0.78800
O712        O  0.96214059  0.71281730  0.50218470    -0.57300
O713        O  0.91107872  0.62676824  0.57085463    -0.55800
O714        O  0.86921768  0.75280938  0.49468636    -0.55700
O715        O  0.82511684  0.67416505  0.54564108    -0.54900
O716        O  0.60593559  0.80968192  0.62809167    -0.56100
C717        C  0.64450171  0.70209405  0.52635602     0.76500
O718        O  0.53760128  0.76731727  0.50229020    -0.57300
C719        C  0.59644870  0.84730138  0.61522233     0.76500
C720        C  0.67396719  0.82296983  0.50465469     0.78900
Cd721      Cd  0.60473634  0.78050186  0.54624643     1.37500
O722        O  0.63949023  0.71230483  0.57019518    -0.56100
O723        O  0.67454886  0.80592067  0.54581096    -0.54900
C724        C  0.52110032  0.74908559  0.53850954     0.78800
O725        O  0.63983318  0.82056780  0.48036215    -0.57300
O726        O  0.63048652  0.72728913  0.49488391    -0.55800
O727        O  0.58859756  0.85328827  0.57112945    -0.55700
O728        O  0.54257777  0.74774914  0.57672465    -0.54900
O729        O  0.93004515  0.84638337  0.88638050    -0.56100
C730        C  0.53765959  0.88483612  0.98838513     0.76500
O731        O  0.91918268  0.87965204  0.03422390    -0.57300
C732        C  0.89256633  0.83686518  0.89929286     0.76500
C733        C  0.99073225  0.76118407  0.97589179     0.78900
Cd734      Cd  0.95936485  0.84500103  0.96826830     1.37500
O735        O  0.52746939  0.87987877  0.94454428    -0.56100
O736        O  0.99194959  0.78272919  0.93765711    -0.54900
C737        C  0.91679805  0.91400003  0.01008096     0.78800
O738        O  0.97258114  0.77767960  0.01215647    -0.57300
O739        O  0.51242539  0.87090080  0.01981530    -0.55800
O740        O  0.88669851  0.82890691  0.94339031    -0.55700
O741        O  0.93404378  0.91488811  0.96906344    -0.56500
O742        O  0.56968638  0.63345841  0.88657480    -0.56100
C743        C  0.96198841  0.59491500  0.98847554     0.76500
O744        O  0.58040056  0.60007732  0.03439891    -0.57300
C745        C  0.60714118  0.64303097  0.89949654     0.76500
C746        C  0.50884161  0.71856952  0.97593393     0.78900
Cd747      Cd  0.54029144  0.63477631  0.96843494     1.37500
O748        O  0.97224854  0.59985824  0.94464634    -0.56100
O749        O  0.50765475  0.69696822  0.93773808    -0.54900
C750        C  0.58282436  0.56574877  0.01022007     0.78800
O751        O  0.52697805  0.70213456  0.01223048    -0.57300
O752        O  0.98716141  0.60887961  0.01993568    -0.55800
O753        O  0.61297038  0.65096928  0.94360171    -0.55700
O754        O  0.56563808  0.56489531  0.96918192    -0.54900
O755        O  0.81967929  0.84647431  0.87796235    -0.56100
C756        C  0.71200899  0.88500944  0.77609536     0.76500
O757        O  0.83044012  0.87982021  0.73011006    -0.57300
C758        C  0.85714041  0.83690752  0.86502991     0.76500
C759        C  0.75887881  0.76135120  0.78859367     0.78900
Cd760      Cd  0.79031128  0.84514875  0.79610678     1.37500
O761        O  0.72225666  0.88007200  0.81992169    -0.56100
O762        O  0.75767754  0.78294176  0.82679831    -0.54900
C763        C  0.83285221  0.91415899  0.75426894     0.78800
O764        O  0.77702440  0.77779815  0.75229762    -0.57300
O765        O  0.73719165  0.87104024  0.74462908    -0.55800
O766        O  0.86298637  0.82897214  0.82092225    -0.55700
O767        O  0.81565264  0.91502891  0.79531280    -0.54900
O768        O  0.68005046  0.63354283  0.87812274    -0.56100
C769        C  0.78768765  0.59508673  0.77606491     0.76500
O770        O  0.66923134  0.60025297  0.73029811    -0.57300
C771        C  0.64257822  0.64307209  0.86522267     0.76500
C772        C  0.74077191  0.71873593  0.78862577     0.78900
Cd773      Cd  0.70939384  0.63492141  0.79622779     1.37500
O774        O  0.77748744  0.60003949  0.81991111    -0.56100
O775        O  0.74198150  0.69717696  0.82684938    -0.54900
C776        C  0.66683147  0.56591252  0.75445451     0.78800
O777        O  0.72262800  0.70225423  0.75236155    -0.57300
O778        O  0.76246273  0.60902854  0.74464700    -0.55800
O779        O  0.63672676  0.65103624  0.82112846    -0.55700
O780        O  0.68406077  0.56503451  0.79546835    -0.54900
O781        O  0.85591331  0.55947724  0.12795093    -0.56100
C782        C  0.89447090  0.95193147  0.02622177     0.76500
O783        O  0.78752995  0.51711824  0.00222799    -0.57300
C784        C  0.84642707  0.59710024  0.11509753     0.76500
C785        C  0.92396370  0.57279155  0.00459390     0.78900
Cd786      Cd  0.85470061  0.53032267  0.04611094     1.37500
O787        O  0.88945691  0.96214647  0.07005800    -0.56100
O788        O  0.92451617  0.55572093  0.04573985    -0.54900
C789        C  0.77106837  0.49888609  0.03847231     0.78800
O790        O  0.88984627  0.57040378  0.98026813    -0.57300
O791        O  0.88044561  0.97711414  0.99474029    -0.55800
O792        O  0.83856418  0.60310277  0.07100871    -0.55700
O793        O  0.79258484  0.99755342  0.07665883    -0.54900
O794        O  0.61011258  0.51755278  0.07016475    -0.56100
C795        C  0.65318947  0.88254566  0.11506570     0.76500
O796        O  0.60981265  0.90934862  0.98024460    -0.57300
C797        C  0.60513216  0.52779992  0.02633676     0.76500
C798        C  0.72852531  0.98083332  0.03847899     0.78900
Cd799      Cd  0.64489503  0.94938218  0.04614667     1.37500
O800        O  0.64367838  0.92015390  0.12796058    -0.56100
O801        O  0.70700548  0.98214333  0.07668205    -0.54900
C802        C  0.57567249  0.90693879  0.00455171     0.78800
O803        O  0.71206792  0.96262020  0.00223289    -0.57300
O804        O  0.66105242  0.87657954  0.07096384    -0.55800
O805        O  0.61917708  0.00263457  0.99483697    -0.55700
O806        O  0.57508295  0.92397037  0.04571988    -0.54900
O807        O  0.88954225  0.76749194  0.19442841    -0.56100
C808        C  0.84644542  0.63254049  0.14943801     0.76500
O809        O  0.88984998  0.65926540  0.28427098    -0.57300
C810        C  0.89451918  0.77773067  0.23825964     0.76500
C811        C  0.77112141  0.73078844  0.22602453     0.78900
Cd812      Cd  0.85475094  0.69932914  0.21840464     1.37500
O813        O  0.85596931  0.67015290  0.13657450    -0.56100
O814        O  0.79266720  0.73211363  0.18784213    -0.54900
C815        C  0.92398037  0.65685483  0.25994657     0.78800
O816        O  0.78755450  0.71256169  0.26227644    -0.57300
O817        O  0.83857568  0.62654916  0.19353323    -0.55800
O818        O  0.88046668  0.75256346  0.26975164    -0.55700
O819        O  0.92455685  0.67389599  0.21878404    -0.54900
O820        O  0.64372904  0.80946421  0.13649224    -0.56100
C821        C  0.60517849  0.70185293  0.23817213     0.76500
O822        O  0.71208893  0.76705657  0.26224045    -0.57300
C823        C  0.65320543  0.84708205  0.14937670     0.76500
C824        C  0.57568809  0.82270284  0.25989584     0.78900
Cd825      Cd  0.64493992  0.78025898  0.21831781     1.37500
O826        O  0.61019094  0.71207397  0.19433723    -0.56100
O827        O  0.57511898  0.80564457  0.21874217    -0.54900
C828        C  0.72857656  0.74883783  0.22600268     0.78800
O829        O  0.60981653  0.82031118  0.28420033    -0.57300
O830        O  0.61920031  0.72703393  0.26965724    -0.55800
O831        O  0.66106024  0.85305913  0.19347232    -0.55700
O832        O  0.70708464  0.74751413  0.18779691    -0.54900
loop_ 
_geom_bond_atom_site_label_1 
_geom_bond_atom_site_label_2 
_geom_bond_distance 
_geom_bond_site_symmetry_2 
_ccdc_geom_bond_type 
O1            C4   1.275       .  A
O1           Cd6   2.468       .  S
C2           O11   1.265       .  A
C2            O7   1.275       .  A
C2          C200   1.461       .  S
O3            C9   1.278       .  A
O3           Cd6   2.490       .  S
C4           O12   1.270       .  A
C4           C43   1.474       .  S
C5           O10   1.275       .  A
C5            O8   1.266       .  A
C5          C642   1.460       .  S
Cd6          O13   2.344       .  S
Cd6          O12   2.455       .  S
Cd6          O10   2.486       .  S
Cd6           O8   2.376       .  S
Cd6         O427   2.357       .  S
Cd6         O423   2.508       .  S
O7         Cd422   2.508   1_455  S
C9           O13   1.269       .  A
C9          C186   1.460       .  S
O11        Cd422   2.357   1_455  S
O14          C17   1.275       .  A
O14         Cd19   2.468       .  S
C15          O24   1.265       .  A
C15          O20   1.275       .  A
C15         C191   1.461       .  S
O16          C22   1.278       .  A
O16         Cd19   2.490       .  S
C17          O25   1.270       .  A
C17          C30   1.474       .  S
C18          O23   1.275       .  A
C18          O21   1.266       .  A
C18         C629   1.460   1_445  S
Cd19         O26   2.344       .  S
Cd19         O25   2.455       .  S
Cd19         O23   2.486       .  S
Cd19         O21   2.376       .  S
Cd19        O440   2.358   1_455  S
Cd19        O436   2.508   1_455  S
O20        Cd435   2.508       .  S
C22          O26   1.269       .  A
C22         C197   1.460       .  S
O24        Cd435   2.358       .  S
O27          C30   1.275       .  A
O27         Cd32   2.468       .  S
C28          O37   1.265       .  A
C28          O33   1.275       .  A
C28          C87   1.461       .  S
O29          C35   1.278       .  A
O29         Cd32   2.490       .  S
C30          O38   1.270       .  A
C31          O36   1.275       .  A
C31          O34   1.266       .  A
C31         C252   1.460   1_545  S
Cd32         O39   2.344       .  S
Cd32         O38   2.455       .  S
Cd32         O37   2.357       .  S
Cd32         O33   2.508       .  S
Cd32         O36   2.486       .  S
Cd32         O34   2.376       .  S
C35          O39   1.269       .  A
C35          C93   1.460       .  S
O40          C43   1.275       .  A
O40         Cd45   2.468       .  S
C41          O50   1.265       .  A
C41          O46   1.275       .  A
C41          C96   1.461       .  S
O42          C48   1.278       .  A
O42         Cd45   2.490       .  S
C43          O51   1.270       .  A
C44          O49   1.275       .  A
C44          O47   1.266       .  A
C44         C239   1.460       .  S
Cd45         O52   2.344       .  S
Cd45         O51   2.455       .  S
Cd45         O50   2.357       .  S
Cd45         O46   2.508       .  S
Cd45         O49   2.486       .  S
Cd45         O47   2.376       .  S
C48          O52   1.269       .  A
C48          C82   1.460       .  S
O53          C56   1.275       .  A
O53         Cd58   2.463       .  S
C54          O59   1.275       .  A
C54         O271   1.265       .  A
C54         C152   1.460       .  S
O55          C61   1.275       .  A
O55         Cd58   2.488       .  S
C56          O64   1.270       .  A
C56          C95   1.472       .  S
C57          O62   1.278       .  A
C57          O60   1.269       .  A
C57         C132   1.461       .  S
Cd58         O65   2.378       .  S
Cd58         O64   2.451       .  S
Cd58         O63   2.352       .  S
Cd58         O62   2.492       .  S
Cd58         O60   2.349       .  S
Cd58        O267   2.505       .  S
O59        Cd266   2.505   1_545  S
C61          O65   1.266       .  A
C61         C698   1.461   1_455  S
O63         C262   1.265       .  A
O66          C69   1.275       .  A
O66         Cd71   2.463       .  S
C67          O76   1.265       .  A
C67          O72   1.275       .  A
C67         C139   1.460       .  S
O68          C74   1.275   1_545  A
O68         Cd71   2.488       .  S
C69          O77   1.270       .  A
C69          C80   1.472       .  S
C70          O75   1.278       .  A
C70          O73   1.269       .  A
C70         C145   1.461       .  S
Cd71         O77   2.451       .  S
Cd71         O75   2.492       .  S
Cd71         O73   2.350       .  S
Cd71        O286   2.378   1_545  S
Cd71        O284   2.352   1_545  S
Cd71        O280   2.506   1_545  S
O72        Cd279   2.506       .  S
C74         O286   1.266       .  A
C74         C685   1.461       .  S
O76        Cd279   2.352       .  S
O78         C282   1.266       .  A
O78        Cd279   2.378       .  S
O79          C82   1.275       .  A
O79         Cd84   2.505       .  S
C80          O89   1.270       .  A
C80          O85   1.275       .  A
O81          C87   1.278       .  A
O81         Cd84   2.492       .  S
C82          O90   1.265       .  A
C83          O88   1.275       .  A
C83          O86   1.266       .  A
C83         C516   1.461       .  S
Cd84         O91   2.349       .  S
Cd84         O90   2.352       .  S
Cd84         O89   2.451       .  S
Cd84         O85   2.463       .  S
Cd84         O88   2.488       .  S
Cd84         O86   2.378       .  S
C87          O91   1.269       .  A
O92          C95   1.275       .  A
O92         Cd97   2.463       .  S
C93         O102   1.265       .  A
C93          O98   1.275       .  A
O94         C100   1.275       .  A
O94         Cd97   2.488       .  S
C95         O103   1.270       .  A
C96         O101   1.278       .  A
C96          O99   1.269       .  A
Cd97        O104   2.378       .  S
Cd97        O103   2.451       .  S
Cd97        O102   2.352       .  S
Cd97         O98   2.506       .  S
Cd97        O101   2.492       .  S
Cd97         O99   2.350       .  S
C100        O104   1.266       .  A
C100        C499   1.461   1_455  S
O105        C108   1.275       .  A
O105       Cd110   2.468       .  S
C106        O115   1.265   1_556  A
C106        O111   1.275       .  A
C106        C178   1.461   1_556  S
O107        C113   1.278       .  A
O107       Cd110   2.490   1_554  S
C108        O116   1.270       .  A
C108        C134   1.474       .  S
C109        O114   1.275   1_556  A
C109        O112   1.266       .  A
C109        C538   1.460       .  S
Cd110       O117   2.344       .  S
Cd110       O116   2.455       .  S
Cd110       O114   2.486   1_556  S
Cd110       O112   2.376       .  S
Cd110       O531   2.357   1_556  S
Cd110       O527   2.508       .  S
O111       Cd526   2.508   1_455  S
C113        O117   1.269   1_554  A
C113        C158   1.460       .  S
O115       Cd526   2.357   1_454  S
O118        C121   1.275       .  A
O118       Cd123   2.467       .  S
C119        O128   1.265   1_556  A
C119        O124   1.275       .  A
C119        C161   1.461   1_556  S
O120        C126   1.278       .  A
O120       Cd123   2.490   1_554  S
C121        O129   1.270       .  A
C121        C147   1.474       .  S
C122        O127   1.275   1_556  A
C122        O125   1.266       .  A
C122        C525   1.460   1_455  S
Cd123       O130   2.344       .  S
Cd123       O129   2.455       .  S
Cd123       O127   2.486   1_556  S
Cd123       O125   2.376       .  S
Cd123       O544   2.357   1_456  S
Cd123       O540   2.508   1_455  S
O124       Cd539   2.508       .  S
C126        O130   1.269   1_554  A
C126        C173   1.460       .  S
O128       Cd539   2.357   1_554  S
O131        C134   1.275       .  A
O131       Cd136   2.468       .  S
C132        O141   1.265       .  A
C132        O137   1.275       .  A
O133        C139   1.278       .  A
O133       Cd136   2.490       .  S
C134        O142   1.270       .  A
C135        O140   1.275       .  A
C135        O138   1.266       .  A
C135        C148   1.460       .  S
Cd136       O143   2.344       .  S
Cd136       O142   2.455       .  S
Cd136       O141   2.357       .  S
Cd136       O137   2.508       .  S
Cd136       O140   2.486       .  S
Cd136       O138   2.376       .  S
C139        O143   1.269       .  A
O144        C147   1.275       .  A
O144       Cd149   2.468       .  S
C145        O154   1.265       .  A
C145        O150   1.275       .  A
O146        C152   1.278       .  A
O146       Cd149   2.490       .  S
C147        O155   1.270       .  A
C148        O153   1.275       .  A
C148        O151   1.266       .  A
Cd149       O156   2.344       .  S
Cd149       O155   2.455       .  S
Cd149       O154   2.357       .  S
Cd149       O150   2.508       .  S
Cd149       O153   2.486       .  S
Cd149       O151   2.376       .  S
C152        O156   1.269       .  A
O157        C160   1.275       .  A
O157       Cd162   2.463       .  S
C158        O167   1.265   1_554  A
C158        O163   1.275       .  A
O159        C165   1.275   1_545  A
O159       Cd162   2.488       .  S
C160        O168   1.270       .  A
C160        C184   1.472       .  S
C161        O166   1.278   1_554  A
C161        O164   1.269       .  A
Cd162       O168   2.451       .  S
Cd162       O166   2.492   1_554  S
Cd162       O164   2.349       .  S
Cd162       O377   2.378   1_545  S
Cd162       O375   2.352   1_544  S
Cd162       O371   2.505   1_545  S
O163       Cd370   2.505       .  S
C165        O377   1.266       .  A
C165        C382   1.461       .  S
O167       Cd370   2.352   1_556  S
O169        C373   1.266       .  A
O169       Cd370   2.378       .  S
O170        C173   1.275       .  A
O170       Cd383   2.506   1_545  S
C171        O180   1.270       .  A
C171        O176   1.275       .  A
C171        C199   1.472       .  S
O172        C178   1.278   1_556  A
O172       Cd175   2.492   1_556  S
C173        O389   1.265   1_554  A
C174        O179   1.275       .  A
C174        O177   1.266       .  A
C174        C373   1.461       .  S
Cd175       O182   2.349       .  S
Cd175       O181   2.352   1_554  S
Cd175       O180   2.451       .  S
Cd175       O176   2.463       .  S
Cd175       O179   2.488       .  S
Cd175       O177   2.378       .  S
Cd175       O378   2.506       .  S
C178        O182   1.269       .  A
O181        C381   1.265   1_556  A
O183        C186   1.275       .  A
O183       Cd188   2.505       .  S
C184        O193   1.270       .  A
C184        O189   1.275       .  A
O185        C191   1.278       .  A
O185       Cd188   2.492       .  S
C186        O194   1.265       .  A
C187        O192   1.275       .  A
C187        O190   1.266       .  A
C187        C204   1.461       .  S
Cd188       O195   2.350       .  S
Cd188       O194   2.352       .  S
Cd188       O193   2.451       .  S
Cd188       O189   2.463       .  S
Cd188       O192   2.488       .  S
Cd188       O190   2.378       .  S
C191        O195   1.269       .  A
O196        C199   1.275       .  A
O196       Cd201   2.463       .  S
C197        O206   1.265       .  A
C197        O202   1.275       .  A
O198        C204   1.275       .  A
O198       Cd201   2.488       .  S
C199        O207   1.270       .  A
C200        O205   1.278       .  A
C200        O203   1.269       .  A
Cd201       O208   2.378       .  S
Cd201       O207   2.451       .  S
Cd201       O206   2.352       .  S
Cd201       O202   2.505       .  S
Cd201       O205   2.492       .  S
Cd201       O203   2.349       .  S
C204        O208   1.266       .  A
O209        C212   1.275       .  A
O209       Cd214   2.468       .  S
C210        O219   1.265       .  A
C210        O215   1.275       .  A
C210        C408   1.461       .  S
O211        C217   1.278       .  A
O211       Cd214   2.490       .  S
C212        O220   1.270       .  A
C212        C251   1.474       .  S
C213        O218   1.275       .  A
C213        O216   1.266       .  A
C213        C434   1.460   1_565  S
Cd214       O221   2.344       .  S
Cd214       O220   2.455       .  S
Cd214       O635   2.357       .  S
Cd214       O631   2.508       .  S
Cd214       O218   2.486       .  S
Cd214       O216   2.376       .  S
O215       Cd630   2.508   1_455  S
C217        O221   1.269       .  A
C217        C394   1.460       .  S
O219       Cd630   2.357   1_455  S
O222        C225   1.275       .  A
O222       Cd227   2.468       .  S
C223        O232   1.265       .  A
C223        O228   1.275       .  A
C223        C399   1.461       .  S
O224        C230   1.278       .  A
O224       Cd227   2.490       .  S
C225        O233   1.270       .  A
C225        C238   1.474       .  S
C226        O231   1.275       .  A
C226        O229   1.266       .  A
C226        C421   1.460   1_455  S
Cd227       O234   2.344       .  S
Cd227       O233   2.455       .  S
Cd227       O648   2.358   1_455  S
Cd227       O644   2.508   1_455  S
Cd227       O231   2.486       .  S
Cd227       O229   2.376       .  S
O228       Cd643   2.508       .  S
C230        O234   1.269       .  A
C230        C405   1.460       .  S
O232       Cd643   2.358       .  S
O235        C238   1.275       .  A
O235       Cd240   2.468       .  S
C236        O245   1.265       .  A
C236        O241   1.275       .  A
C236        C295   1.461       .  S
O237        C243   1.278       .  A
O237       Cd240   2.490       .  S
C238        O246   1.270       .  A
C239        O244   1.275       .  A
C239        O242   1.266       .  A
Cd240       O247   2.344       .  S
Cd240       O246   2.455       .  S
Cd240       O245   2.357       .  S
Cd240       O241   2.508       .  S
Cd240       O244   2.486       .  S
Cd240       O242   2.376       .  S
C243        O247   1.269       .  A
C243        C301   1.460       .  S
O248        C251   1.275       .  A
O248       Cd253   2.468       .  S
C249        O258   1.265       .  A
C249        O254   1.275       .  A
C249        C304   1.461       .  S
O250        C256   1.278       .  A
O250       Cd253   2.490       .  S
C251        O259   1.270       .  A
C252        O257   1.275       .  A
C252        O255   1.266       .  A
Cd253       O260   2.344       .  S
Cd253       O259   2.455       .  S
Cd253       O258   2.357       .  S
Cd253       O254   2.508       .  S
Cd253       O257   2.486       .  S
Cd253       O255   2.376       .  S
C256        O260   1.269       .  A
C256        C290   1.460       .  S
O261        C264   1.275       .  A
O261       Cd266   2.463       .  S
C262        O267   1.275       .  A
C262        C360   1.460       .  S
O263        C269   1.275       .  A
O263       Cd266   2.488       .  S
C264        O272   1.270       .  A
C264        C303   1.472       .  S
C265        O270   1.278       .  A
C265        O268   1.269       .  A
C265        C340   1.461       .  S
Cd266       O273   2.378       .  S
Cd266       O272   2.451       .  S
Cd266       O271   2.352   1_565  S
Cd266       O270   2.492       .  S
Cd266       O268   2.349       .  S
C269        O273   1.266       .  A
C269        C490   1.461   1_455  S
O274        C277   1.275       .  A
O274       Cd279   2.463       .  S
C275        O284   1.265       .  A
C275        O280   1.275       .  A
C275        C347   1.460       .  S
O276        C282   1.275       .  A
O276       Cd279   2.488       .  S
C277        O285   1.270       .  A
C277        C288   1.472       .  S
C278        O283   1.278       .  A
C278        O281   1.269       .  A
C278        C353   1.461       .  S
Cd279       O285   2.451       .  S
Cd279       O283   2.492       .  S
Cd279       O281   2.350       .  S
C282        C477   1.461       .  S
O287        C290   1.275       .  A
O287       Cd292   2.505       .  S
C288        O297   1.270       .  A
C288        O293   1.275       .  A
O289        C295   1.278       .  A
O289       Cd292   2.492       .  S
C290        O298   1.265       .  A
C291        O296   1.275       .  A
C291        O294   1.266       .  A
C291        C724   1.461       .  S
Cd292       O299   2.349       .  S
Cd292       O298   2.352       .  S
Cd292       O297   2.451       .  S
Cd292       O293   2.463       .  S
Cd292       O296   2.488       .  S
Cd292       O294   2.378       .  S
C295        O299   1.269       .  A
O300        C303   1.275       .  A
O300       Cd305   2.463       .  S
C301        O310   1.265       .  A
C301        O306   1.275       .  A
O302        C308   1.275       .  A
O302       Cd305   2.488       .  S
C303        O311   1.270       .  A
C304        O309   1.278       .  A
C304        O307   1.269       .  A
Cd305       O312   2.378       .  S
Cd305       O311   2.451       .  S
Cd305       O310   2.352       .  S
Cd305       O306   2.506       .  S
Cd305       O309   2.492       .  S
Cd305       O307   2.350       .  S
C308        O312   1.266       .  A
C308        C707   1.461   1_455  S
O313        C316   1.275       .  A
O313       Cd318   2.468       .  S
C314        O323   1.265   1_556  A
C314        O319   1.275       .  A
C314        C386   1.461   1_556  S
O315        C321   1.278       .  A
O315       Cd318   2.490   1_554  S
C316        O324   1.270       .  A
C316        C342   1.474       .  S
C317        O322   1.275   1_556  A
C317        O320   1.266       .  A
C317        C746   1.460       .  S
Cd318       O325   2.344       .  S
Cd318       O324   2.455       .  S
Cd318       O739   2.357   1_556  S
Cd318       O735   2.508       .  S
Cd318       O322   2.486   1_556  S
Cd318       O320   2.376       .  S
O319       Cd734   2.508   1_455  S
C321        O325   1.269   1_554  A
C321        C366   1.460       .  S
O323       Cd734   2.357   1_454  S
O326        C329   1.275       .  A
O326       Cd331   2.467       .  S
C327        O336   1.265   1_556  A
C327        O332   1.275       .  A
C327        C369   1.461   1_556  S
O328        C334   1.278       .  A
O328       Cd331   2.490   1_554  S
C329        O337   1.270       .  A
C329        C355   1.474       .  S
C330        O335   1.275   1_556  A
C330        O333   1.266       .  A
C330        C733   1.460   1_455  S
Cd331       O338   2.344       .  S
Cd331       O337   2.455       .  S
Cd331       O752   2.357   1_456  S
Cd331       O748   2.508   1_455  S
Cd331       O335   2.486   1_556  S
Cd331       O333   2.376       .  S
O332       Cd747   2.508       .  S
C334        O338   1.269   1_554  A
C334        C381   1.460       .  S
O336       Cd747   2.357   1_554  S
O339        C342   1.275       .  A
O339       Cd344   2.468       .  S
C340        O349   1.265       .  A
C340        O345   1.275       .  A
O341        C347   1.278       .  A
O341       Cd344   2.490       .  S
C342        O350   1.270       .  A
C343        O348   1.275       .  A
C343        O346   1.266       .  A
C343        C356   1.460       .  S
Cd344       O351   2.344       .  S
Cd344       O350   2.455       .  S
Cd344       O349   2.357       .  S
Cd344       O345   2.508       .  S
Cd344       O348   2.486       .  S
Cd344       O346   2.376       .  S
C347        O351   1.269       .  A
O352        C355   1.275       .  A
O352       Cd357   2.468       .  S
C353        O362   1.265       .  A
C353        O358   1.275       .  A
O354        C360   1.278       .  A
O354       Cd357   2.490       .  S
C355        O363   1.270       .  A
C356        O361   1.275       .  A
C356        O359   1.266       .  A
Cd357       O364   2.344       .  S
Cd357       O363   2.455       .  S
Cd357       O362   2.357       .  S
Cd357       O358   2.508       .  S
Cd357       O361   2.486       .  S
Cd357       O359   2.376       .  S
C360        O364   1.269       .  A
O365        C368   1.275       .  A
O365       Cd370   2.463       .  S
C366        O375   1.265   1_554  A
C366        O371   1.275       .  A
O367        C373   1.275       .  A
O367       Cd370   2.488       .  S
C368        O376   1.270       .  A
C368        C392   1.472       .  S
C369        O374   1.278   1_554  A
C369        O372   1.269       .  A
Cd370       O376   2.451       .  S
Cd370       O374   2.492   1_554  S
Cd370       O372   2.349       .  S
O378        C381   1.275       .  A
C379        O388   1.270       .  A
C379        O384   1.275       .  A
C379        C407   1.472       .  S
O380        C386   1.278   1_556  A
O380       Cd383   2.492   1_556  S
C382        O387   1.275       .  A
C382        O385   1.266       .  A
Cd383       O390   2.349       .  S
Cd383       O389   2.352   1_564  S
Cd383       O388   2.451       .  S
Cd383       O384   2.463       .  S
Cd383       O387   2.488       .  S
Cd383       O385   2.378       .  S
C386        O390   1.269       .  A
O391        C394   1.275       .  A
O391       Cd396   2.505       .  S
C392        O401   1.270       .  A
C392        O397   1.275       .  A
O393        C399   1.278       .  A
O393       Cd396   2.492       .  S
C394        O402   1.265       .  A
C395        O400   1.275       .  A
C395        O398   1.266       .  A
C395        C412   1.461       .  S
Cd396       O403   2.350       .  S
Cd396       O402   2.352       .  S
Cd396       O401   2.451       .  S
Cd396       O397   2.463       .  S
Cd396       O400   2.488       .  S
Cd396       O398   2.378       .  S
C399        O403   1.269       .  A
O404        C407   1.275       .  A
O404       Cd409   2.463       .  S
C405        O414   1.265       .  A
C405        O410   1.275       .  A
O406        C412   1.275       .  A
O406       Cd409   2.488       .  S
C407        O415   1.270       .  A
C408        O413   1.278       .  A
C408        O411   1.269       .  A
Cd409       O416   2.378       .  S
Cd409       O415   2.451       .  S
Cd409       O414   2.352       .  S
Cd409       O410   2.505       .  S
Cd409       O413   2.492       .  S
Cd409       O411   2.349       .  S
C412        O416   1.266       .  A
O417        C420   1.275       .  A
O417       Cd422   2.468       .  S
C418        O427   1.265       .  A
C418        O423   1.275       .  A
C418        C616   1.461       .  S
O419        C425   1.278       .  A
O419       Cd422   2.490       .  S
C420        O428   1.270       .  A
C420        C459   1.474       .  S
C421        O426   1.275       .  A
C421        O424   1.266       .  A
Cd422       O429   2.344       .  S
Cd422       O428   2.455       .  S
Cd422       O426   2.486       .  S
Cd422       O424   2.376       .  S
C425        O429   1.269       .  A
C425        C602   1.460       .  S
O430        C433   1.275       .  A
O430       Cd435   2.468       .  S
C431        O440   1.265       .  A
C431        O436   1.275       .  A
C431        C607   1.461       .  S
O432        C438   1.278       .  A
O432       Cd435   2.490       .  S
C433        O441   1.270       .  A
C433        C446   1.474       .  S
C434        O439   1.275       .  A
C434        O437   1.266       .  A
Cd435       O442   2.344       .  S
Cd435       O441   2.455       .  S
Cd435       O439   2.486       .  S
Cd435       O437   2.376       .  S
C438        O442   1.269       .  A
C438        C613   1.460       .  S
O443        C446   1.275       .  A
O443       Cd448   2.468       .  S
C444        O453   1.265       .  A
C444        O449   1.275       .  A
C444        C503   1.461       .  S
O445        C451   1.278       .  A
O445       Cd448   2.490       .  S
C446        O454   1.270       .  A
C447        O452   1.275       .  A
C447        O450   1.266       .  A
C447        C668   1.460   1_545  S
Cd448       O455   2.344       .  S
Cd448       O454   2.455       .  S
Cd448       O453   2.357       .  S
Cd448       O449   2.508       .  S
Cd448       O452   2.486       .  S
Cd448       O450   2.376       .  S
C451        O455   1.269       .  A
C451        C509   1.460       .  S
O456        C459   1.275       .  A
O456       Cd461   2.468       .  S
C457        O466   1.265       .  A
C457        O462   1.275       .  A
C457        C512   1.461       .  S
O458        C464   1.278       .  A
O458       Cd461   2.490       .  S
C459        O467   1.270       .  A
C460        O465   1.275       .  A
C460        O463   1.266       .  A
C460        C655   1.460       .  S
Cd461       O468   2.344       .  S
Cd461       O467   2.455       .  S
Cd461       O466   2.357       .  S
Cd461       O462   2.508       .  S
Cd461       O465   2.486       .  S
Cd461       O463   2.376       .  S
C464        O468   1.269       .  A
C464        C498   1.460       .  S
O469        C472   1.275       .  A
O469       Cd474   2.463       .  S
C470        O687   1.265       .  A
C470        O475   1.275       .  A
C470        C568   1.460       .  S
O471        C477   1.275       .  A
O471       Cd474   2.488       .  S
C472        O480   1.270       .  A
C472        C511   1.472       .  S
C473        O478   1.278       .  A
C473        O476   1.269       .  A
C473        C548   1.461       .  S
Cd474       O481   2.378       .  S
Cd474       O480   2.451       .  S
Cd474       O479   2.352       .  S
Cd474       O683   2.505       .  S
Cd474       O478   2.492       .  S
Cd474       O476   2.349       .  S
O475       Cd682   2.505   1_545  S
C477        O481   1.266       .  A
O479        C678   1.265       .  A
O482        C485   1.275       .  A
O482       Cd487   2.463       .  S
C483        O492   1.265       .  A
C483        O488   1.275       .  A
C483        C555   1.460       .  S
O484        C490   1.275   1_545  A
O484       Cd487   2.488       .  S
C485        O493   1.270       .  A
C485        C496   1.472       .  S
C486        O491   1.278       .  A
C486        O489   1.269       .  A
C486        C561   1.461       .  S
Cd487       O702   2.378   1_545  S
Cd487       O493   2.451       .  S
Cd487       O700   2.352   1_545  S
Cd487       O696   2.506   1_545  S
Cd487       O491   2.492       .  S
Cd487       O489   2.350       .  S
O488       Cd695   2.506       .  S
C490        O702   1.266       .  A
O492       Cd695   2.352       .  S
O494        C698   1.266       .  A
O494       Cd695   2.378       .  S
O495        C498   1.275       .  A
O495       Cd500   2.505       .  S
C496        O505   1.270       .  A
C496        O501   1.275       .  A
O497        C503   1.278       .  A
O497       Cd500   2.492       .  S
C498        O506   1.265       .  A
C499        O504   1.275       .  A
C499        O502   1.266       .  A
Cd500       O507   2.349       .  S
Cd500       O506   2.352       .  S
Cd500       O505   2.451       .  S
Cd500       O501   2.463       .  S
Cd500       O504   2.488       .  S
Cd500       O502   2.378       .  S
C503        O507   1.269       .  A
O508        C511   1.275       .  A
O508       Cd513   2.463       .  S
C509        O518   1.265       .  A
C509        O514   1.275       .  A
O510        C516   1.275       .  A
O510       Cd513   2.488       .  S
C511        O519   1.270       .  A
C512        O517   1.278       .  A
C512        O515   1.269       .  A
Cd513       O520   2.378       .  S
Cd513       O519   2.451       .  S
Cd513       O518   2.352       .  S
Cd513       O514   2.506       .  S
Cd513       O517   2.492       .  S
Cd513       O515   2.350       .  S
C516        O520   1.266       .  A
O521        C524   1.275       .  A
O521       Cd526   2.468       .  S
C522        O531   1.265   1_556  A
C522        O527   1.275       .  A
C522        C594   1.461   1_556  S
O523        C529   1.278       .  A
O523       Cd526   2.490   1_554  S
C524        O532   1.270       .  A
C524        C550   1.474       .  S
C525        O530   1.275   1_556  A
C525        O528   1.266       .  A
Cd526       O533   2.344       .  S
Cd526       O532   2.455       .  S
Cd526       O530   2.486   1_556  S
Cd526       O528   2.376       .  S
C529        O533   1.269   1_554  A
C529        C574   1.460       .  S
O534        C537   1.275       .  A
O534       Cd539   2.467       .  S
C535        O544   1.265   1_556  A
C535        O540   1.275       .  A
C535        C577   1.461   1_556  S
O536        C542   1.278       .  A
O536       Cd539   2.490   1_554  S
C537        O545   1.270       .  A
C537        C563   1.474       .  S
C538        O543   1.275   1_556  A
C538        O541   1.266       .  A
Cd539       O546   2.344       .  S
Cd539       O545   2.455       .  S
Cd539       O543   2.486   1_556  S
Cd539       O541   2.376       .  S
C542        O546   1.269   1_554  A
C542        C589   1.460       .  S
O547        C550   1.275       .  A
O547       Cd552   2.468       .  S
C548        O557   1.265       .  A
C548        O553   1.275       .  A
O549        C555   1.278       .  A
O549       Cd552   2.490       .  S
C550        O558   1.270       .  A
C551        O556   1.275       .  A
C551        O554   1.266       .  A
C551        C564   1.460       .  S
Cd552       O559   2.344       .  S
Cd552       O558   2.455       .  S
Cd552       O557   2.357       .  S
Cd552       O553   2.508       .  S
Cd552       O556   2.486       .  S
Cd552       O554   2.376       .  S
C555        O559   1.269       .  A
O560        C563   1.275       .  A
O560       Cd565   2.468       .  S
C561        O570   1.265       .  A
C561        O566   1.275       .  A
O562        C568   1.278       .  A
O562       Cd565   2.490       .  S
C563        O571   1.270       .  A
C564        O569   1.275       .  A
C564        O567   1.266       .  A
Cd565       O572   2.344       .  S
Cd565       O571   2.455       .  S
Cd565       O570   2.357       .  S
Cd565       O566   2.508       .  S
Cd565       O569   2.486       .  S
Cd565       O567   2.376       .  S
C568        O572   1.269       .  A
O573        C576   1.275       .  A
O573       Cd578   2.463       .  S
C574        O583   1.265   1_554  A
C574        O579   1.275       .  A
O575        C581   1.275   1_545  A
O575       Cd578   2.488       .  S
C576        O584   1.270       .  A
C576        C600   1.472       .  S
C577        O582   1.278   1_554  A
C577        O580   1.269       .  A
Cd578       O793   2.378   1_545  S
Cd578       O584   2.451       .  S
Cd578       O791   2.352   1_544  S
Cd578       O787   2.505   1_545  S
Cd578       O582   2.492   1_554  S
Cd578       O580   2.349       .  S
O579       Cd786   2.505       .  S
C581        O793   1.266       .  A
C581        C798   1.461       .  S
O583       Cd786   2.352   1_556  S
O585        C789   1.266       .  A
O585       Cd786   2.378       .  S
O586        C589   1.275       .  A
O586       Cd799   2.506   1_545  S
C587        O596   1.270       .  A
C587        O592   1.275       .  A
C587        C615   1.472       .  S
O588        C594   1.278   1_556  A
O588       Cd591   2.492   1_556  S
C589        O805   1.265   1_554  A
C590        O595   1.275       .  A
C590        O593   1.266       .  A
C590        C789   1.461       .  S
Cd591       O794   2.505       .  S
Cd591       O598   2.349       .  S
Cd591       O597   2.352   1_554  S
Cd591       O596   2.451       .  S
Cd591       O592   2.463       .  S
Cd591       O595   2.488       .  S
Cd591       O593   2.378       .  S
C594        O598   1.269       .  A
O597        C797   1.265   1_556  A
O599        C602   1.275       .  A
O599       Cd604   2.505       .  S
C600        O609   1.270       .  A
C600        O605   1.275       .  A
O601        C607   1.278       .  A
O601       Cd604   2.492       .  S
C602        O610   1.265       .  A
C603        O608   1.275       .  A
C603        O606   1.266       .  A
C603        C620   1.461       .  S
Cd604       O611   2.350       .  S
Cd604       O610   2.352       .  S
Cd604       O609   2.451       .  S
Cd604       O605   2.463       .  S
Cd604       O608   2.488       .  S
Cd604       O606   2.378       .  S
C607        O611   1.269       .  A
O612        C615   1.275       .  A
O612       Cd617   2.463       .  S
C613        O622   1.265       .  A
C613        O618   1.275       .  A
O614        C620   1.275       .  A
O614       Cd617   2.488       .  S
C615        O623   1.270       .  A
C616        O621   1.278       .  A
C616        O619   1.269       .  A
Cd617       O624   2.378       .  S
Cd617       O623   2.451       .  S
Cd617       O622   2.352       .  S
Cd617       O618   2.505       .  S
Cd617       O621   2.492       .  S
Cd617       O619   2.349       .  S
C620        O624   1.266       .  A
O625        C628   1.275       .  A
O625       Cd630   2.468       .  S
C626        O635   1.265       .  A
C626        O631   1.275       .  A
C626        C824   1.461       .  S
O627        C633   1.278       .  A
O627       Cd630   2.490       .  S
C628        O636   1.270       .  A
C628        C667   1.474       .  S
C629        O634   1.275       .  A
C629        O632   1.266       .  A
Cd630       O637   2.344       .  S
Cd630       O636   2.455       .  S
Cd630       O634   2.486       .  S
Cd630       O632   2.376       .  S
C633        O637   1.269       .  A
C633        C810   1.460       .  S
O638        C641   1.275       .  A
O638       Cd643   2.468       .  S
C639        O648   1.265       .  A
C639        O644   1.275       .  A
C639        C815   1.461       .  S
O640        C646   1.278       .  A
O640       Cd643   2.490       .  S
C641        O649   1.270       .  A
C641        C654   1.474       .  S
C642        O647   1.275       .  A
C642        O645   1.266       .  A
Cd643       O650   2.344       .  S
Cd643       O649   2.455       .  S
Cd643       O647   2.486       .  S
Cd643       O645   2.376       .  S
C646        O650   1.269       .  A
C646        C821   1.460       .  S
O651        C654   1.275       .  A
O651       Cd656   2.468       .  S
C652        O661   1.265       .  A
C652        O657   1.275       .  A
C652        C711   1.461       .  S
O653        C659   1.278       .  A
O653       Cd656   2.490       .  S
C654        O662   1.270       .  A
C655        O660   1.275       .  A
C655        O658   1.266       .  A
Cd656       O663   2.344       .  S
Cd656       O662   2.455       .  S
Cd656       O661   2.357       .  S
Cd656       O657   2.508       .  S
Cd656       O660   2.486       .  S
Cd656       O658   2.376       .  S
C659        O663   1.269       .  A
C659        C717   1.460       .  S
O664        C667   1.275       .  A
O664       Cd669   2.468       .  S
C665        O674   1.265       .  A
C665        O670   1.275       .  A
C665        C720   1.461       .  S
O666        C672   1.278       .  A
O666       Cd669   2.490       .  S
C667        O675   1.270       .  A
C668        O673   1.275       .  A
C668        O671   1.266       .  A
Cd669       O676   2.344       .  S
Cd669       O675   2.455       .  S
Cd669       O674   2.357       .  S
Cd669       O670   2.508       .  S
Cd669       O673   2.486       .  S
Cd669       O671   2.376       .  S
C672        O676   1.269       .  A
C672        C706   1.460       .  S
O677        C680   1.275       .  A
O677       Cd682   2.463       .  S
C678        O683   1.275       .  A
C678        C776   1.460       .  S
O679        C685   1.275       .  A
O679       Cd682   2.488       .  S
C680        O688   1.270       .  A
C680        C719   1.472       .  S
C681        O686   1.278       .  A
C681        O684   1.269       .  A
C681        C756   1.461       .  S
Cd682       O689   2.378       .  S
Cd682       O688   2.451       .  S
Cd682       O687   2.352   1_565  S
Cd682       O686   2.492       .  S
Cd682       O684   2.349       .  S
C685        O689   1.266       .  A
O690        C693   1.275       .  A
O690       Cd695   2.463       .  S
C691        O700   1.265       .  A
C691        O696   1.275       .  A
C691        C763   1.460       .  S
O692        C698   1.275       .  A
O692       Cd695   2.488       .  S
C693        O701   1.270       .  A
C693        C704   1.472       .  S
C694        O699   1.278       .  A
C694        O697   1.269       .  A
C694        C769   1.461       .  S
Cd695       O701   2.451       .  S
Cd695       O699   2.492       .  S
Cd695       O697   2.350       .  S
O703        C706   1.275       .  A
O703       Cd708   2.505       .  S
C704        O713   1.270       .  A
C704        O709   1.275       .  A
O705        C711   1.278       .  A
O705       Cd708   2.492       .  S
C706        O714   1.265       .  A
C707        O712   1.275       .  A
C707        O710   1.266       .  A
Cd708       O715   2.349       .  S
Cd708       O714   2.352       .  S
Cd708       O713   2.451       .  S
Cd708       O709   2.463       .  S
Cd708       O712   2.488       .  S
Cd708       O710   2.378       .  S
C711        O715   1.269       .  A
O716        C719   1.275       .  A
O716       Cd721   2.463       .  S
C717        O726   1.265       .  A
C717        O722   1.275       .  A
O718        C724   1.275       .  A
O718       Cd721   2.488       .  S
C719        O727   1.270       .  A
C720        O725   1.278       .  A
C720        O723   1.269       .  A
Cd721       O728   2.378       .  S
Cd721       O727   2.451       .  S
Cd721       O726   2.352       .  S
Cd721       O722   2.506       .  S
Cd721       O725   2.492       .  S
Cd721       O723   2.350       .  S
C724        O728   1.266       .  A
O729        C732   1.275       .  A
O729       Cd734   2.468       .  S
C730        O739   1.265   1_556  A
C730        O735   1.275       .  A
C730        C802   1.461   1_556  S
O731        C737   1.278       .  A
O731       Cd734   2.490   1_554  S
C732        O740   1.270       .  A
C732        C758   1.474       .  S
C733        O738   1.275   1_556  A
C733        O736   1.266       .  A
Cd734       O741   2.344       .  S
Cd734       O740   2.455       .  S
Cd734       O738   2.486   1_556  S
Cd734       O736   2.376       .  S
C737        O741   1.269   1_554  A
C737        C782   1.460       .  S
O742        C745   1.275       .  A
O742       Cd747   2.467       .  S
C743        O752   1.265   1_556  A
C743        O748   1.275       .  A
C743        C785   1.461   1_556  S
O744        C750   1.278       .  A
O744       Cd747   2.490   1_554  S
C745        O753   1.270       .  A
C745        C771   1.474       .  S
C746        O751   1.275   1_556  A
C746        O749   1.266       .  A
Cd747       O754   2.344       .  S
Cd747       O753   2.455       .  S
Cd747       O751   2.486   1_556  S
Cd747       O749   2.376       .  S
C750        O754   1.269   1_554  A
C750        C797   1.460       .  S
O755        C758   1.275       .  A
O755       Cd760   2.468       .  S
C756        O765   1.265       .  A
C756        O761   1.275       .  A
O757        C763   1.278       .  A
O757       Cd760   2.490       .  S
C758        O766   1.270       .  A
C759        O764   1.275       .  A
C759        O762   1.266       .  A
C759        C772   1.460       .  S
Cd760       O767   2.344       .  S
Cd760       O766   2.455       .  S
Cd760       O765   2.357       .  S
Cd760       O761   2.508       .  S
Cd760       O764   2.486       .  S
Cd760       O762   2.376       .  S
C763        O767   1.269       .  A
O768        C771   1.275       .  A
O768       Cd773   2.468       .  S
C769        O778   1.265       .  A
C769        O774   1.275       .  A
O770        C776   1.278       .  A
O770       Cd773   2.490       .  S
C771        O779   1.270       .  A
C772        O777   1.275       .  A
C772        O775   1.266       .  A
Cd773       O780   2.344       .  S
Cd773       O779   2.455       .  S
Cd773       O778   2.357       .  S
Cd773       O774   2.508       .  S
Cd773       O777   2.486       .  S
Cd773       O775   2.376       .  S
C776        O780   1.269       .  A
O781        C784   1.275       .  A
O781       Cd786   2.463       .  S
C782        O791   1.265   1_554  A
C782        O787   1.275       .  A
O783        C789   1.275       .  A
O783       Cd786   2.488       .  S
C784        O792   1.270       .  A
C784        C808   1.472       .  S
C785        O790   1.278   1_554  A
C785        O788   1.269       .  A
Cd786       O792   2.451       .  S
Cd786       O790   2.492   1_554  S
Cd786       O788   2.349       .  S
O794        C797   1.275       .  A
C795        O804   1.270       .  A
C795        O800   1.275       .  A
C795        C823   1.472       .  S
O796        C802   1.278   1_556  A
O796       Cd799   2.492   1_556  S
C798        O803   1.275       .  A
C798        O801   1.266       .  A
Cd799       O806   2.349       .  S
Cd799       O805   2.352   1_564  S
Cd799       O804   2.451       .  S
Cd799       O800   2.463       .  S
Cd799       O803   2.488       .  S
Cd799       O801   2.378       .  S
C802        O806   1.269       .  A
O807        C810   1.275       .  A
O807       Cd812   2.505       .  S
C808        O817   1.270       .  A
C808        O813   1.275       .  A
O809        C815   1.278       .  A
O809       Cd812   2.492       .  S
C810        O818   1.265       .  A
C811        O816   1.275       .  A
C811        O814   1.266       .  A
C811        C828   1.461       .  S
Cd812       O819   2.350       .  S
Cd812       O818   2.352       .  S
Cd812       O817   2.451       .  S
Cd812       O813   2.463       .  S
Cd812       O816   2.488       .  S
Cd812       O814   2.378       .  S
C815        O819   1.269       .  A
O820        C823   1.275       .  A
O820       Cd825   2.463       .  S
C821        O830   1.265       .  A
C821        O826   1.275       .  A
O822        C828   1.275       .  A
O822       Cd825   2.488       .  S
C823        O831   1.270       .  A
C824        O829   1.278       .  A
C824        O827   1.269       .  A
Cd825       O832   2.378       .  S
Cd825       O831   2.451       .  S
Cd825       O830   2.352       .  S
Cd825       O826   2.505       .  S
Cd825       O829   2.492       .  S
Cd825       O827   2.349       .  S
C828        O832   1.266       .  A
