geometry optimzed in LAMMPS
_audit_creation_date              2020-12-01 
_audit_creation_method            'lammps2cif' 
_symmetry_space_group_name_H-M    'P1' 
_symmetry_Int_Tables_number       1 
_symmetry_cell_setting            triclinic 
loop_ 
_symmetry_equiv_pos_as_xyz 
  x,y,z 
_cell_length_a                    38.61088969 
_cell_length_b                    38.60152961511801 
_cell_length_c                    73.91852438044074 
_cell_angle_alpha                 90.00171804103806 
_cell_angle_beta                  89.9041471401327 
_cell_angle_gamma                 90.04239089239604 
loop_ 
_atom_site_label 
_atom_site_type_symbol 
_atom_site_fract_x 
_atom_site_fract_y 
_atom_site_fract_z 
_atom_site_charge 
C1          C  0.89634870  0.66119403  0.30420528     0.80200
N2          N  0.86527846  0.64927912  0.29839775    -0.78100
C3          C  0.84754476  0.62532548  0.30800624     0.82600
N4          N  0.86127299  0.61297035  0.32357145    -0.78100
C5          C  0.89237445  0.62448652  0.32961794     0.82700
N6          N  0.90977977  0.64893655  0.31997166    -0.79800
C7          C  0.77780231  0.76872641  0.11626330     0.80200
N8          N  0.76156903  0.74137702  0.12411412    -0.78100
C9          C  0.72917825  0.73185331  0.11902407     0.82600
N10         N  0.71270928  0.75047043  0.10607060    -0.78100
C11         C  0.72853598  0.77801771  0.09807938     0.82700
N12         N  0.76111399  0.78700680  0.10322128    -0.79800
C13         C  0.32119427  0.72682842  0.33358224     0.80200
N14         N  0.33951536  0.74363058  0.34654155    -0.78100
C15         C  0.32982553  0.77571026  0.35221281     0.82600
N16         N  0.30138806  0.79084663  0.34475710    -0.78100
C17         C  0.28288799  0.77417455  0.33176729     0.82700
N18         N  0.29321957  0.74240334  0.32615114    -0.79800
C19         C  0.86438819  0.31195071  0.10201263     0.80200
N20         N  0.83615735  0.32593865  0.11029759    -0.78100
C21         C  0.82189808  0.31010925  0.12493845     0.82600
N22         N  0.83647762  0.28078670  0.13137700    -0.78100
C23         C  0.86479193  0.26677331  0.12347882     0.82700
N24         N  0.87862891  0.28234140  0.10866221    -0.79800
C25         C  0.10448904  0.90368336  0.26310106     0.42400
N26         N  0.09203825  0.94331504  0.24409859     0.01300
C27         C  0.93714111  0.03221119  0.23860191    -0.06600
H28         H  0.93443009  0.89455410  0.22590672     0.06800
C29         C  0.99999721  0.91080121  0.17239271    -0.06900
Co30       Co  0.02463559  0.97659927  0.25261127     0.74200
N31         N  0.96923175  0.93409239  0.23559815    -0.26100
Co32       Co  0.96997522  0.97243362  0.21575213     0.74100
C33         C  0.96804243  0.89306784  0.17761948     0.42500
N34         N  0.08009809  0.93955628  0.19029584     0.00900
N35         N  0.97738869  0.93487252  0.19602922     0.01000
N36         N  0.97347851  0.03260467  0.26255633    -0.47000
H37         H  0.05442832  0.91268613  0.27932043     0.06800
N38         N  0.99018918  0.93572113  0.24965580     0.01300
N39         N  0.97421267  0.01057694  0.19579616     0.01000
C40         C  0.96663523  0.05465707  0.17872803     0.42600
N41         N  0.10107047  0.94111748  0.20435934    -0.25600
C42         C  0.06010646  0.04436294  0.26538274    -0.06500
N43         N  0.11625795  0.92059673  0.24838749    -0.46700
N44         N  0.95266772  0.03653635  0.19260651    -0.46900
C45         C  0.09107659  0.06370352  0.26026876     0.42400
N46         N  0.98397363  0.01081509  0.24991288     0.01300
N47         N  0.09746144  0.01689685  0.20332180    -0.25600
N48         N  0.06543344  0.94248551  0.25526073    -0.26100
N49         N  0.07726619  0.01461821  0.18902109     0.00900
H50         H  0.14130285  0.04928793  0.20967355     0.06800
H51         H  0.01756966  0.04443630  0.16331169     0.06800
N52         N  0.96302987  0.00961191  0.23587810    -0.26100
N53         N  0.00385395  0.93603347  0.18476503    -0.25800
N54         N  0.08658482  0.01895683  0.24319190     0.01300
C55         C  0.96580944  0.88614017  0.25203271     0.42700
C56         C  0.12295594  0.91409329  0.20353215    -0.07000
N57         N  0.00128979  0.01094493  0.18486331    -0.25800
H58         H  0.01682553  0.90617193  0.16093498     0.06800
N59         N  0.98907146  0.90752687  0.25977773    -0.47000
H60         H  0.14274333  0.90804309  0.21336618     0.06800
C61         C  0.11216231  0.05615093  0.18278471     0.42500
C62         C  0.07115245  0.91846801  0.26796144    -0.06500
Co63       Co  0.09520144  0.98021914  0.22381990     0.73800
N64         N  0.08624499  0.91270930  0.17971866    -0.46700
C65         C  0.94433945  0.04747539  0.25633192     0.42800
N66         N  0.10630955  0.04629598  0.24650823    -0.46700
Co67       Co  0.04073867  0.97521744  0.18683659     0.73900
C68         C  0.99874418  0.03768135  0.17355422    -0.07000
C69         C  0.95233033  0.90375968  0.23604749    -0.06600
N70         N  0.05955674  0.01724931  0.25411366    -0.26100
N71         N  0.95535644  0.90973982  0.19218051    -0.46900
H72         H  0.91478030  0.03541981  0.22996933     0.06800
C73         C  0.12007296  0.04277051  0.20076694    -0.07000
Cl74       Cl  0.03263869  0.97620429  0.21974233    -0.50000
C75         C  0.11293826  0.89534620  0.18710981     0.42500
H76         H  0.04142519  0.04931064  0.27597885     0.06800
N77         N  0.08578824  0.03701011  0.17619754    -0.46700
C78         C  0.18296294  0.61817782  0.11935849     0.80200
N79         N  0.17027065  0.64829784  0.12628333    -0.78100
C80         C  0.18406591  0.66218977  0.14156141     0.82600
N81         N  0.21050660  0.64556969  0.14987102    -0.78100
C82         C  0.22348424  0.61556309  0.14319254     0.82700
N83         N  0.20978083  0.60207592  0.12781254    -0.79800
C84         C  0.76140078  0.15541170  0.33249505     0.80200
N85         N  0.74355628  0.13685483  0.34497472    -0.78100
C86         C  0.71473293  0.15047671  0.35292566     0.82600
N87         N  0.70395909  0.18292408  0.34821800    -0.78100
C88         C  0.72208308  0.20165764  0.33582655     0.82700
N89         N  0.75042908  0.18745424  0.32806017    -0.79800
C90         C  0.21690133  0.28149702  0.35711717     0.80200
N91         N  0.24691612  0.29503535  0.35048844    -0.78100
C92         C  0.26203613  0.28109466  0.33554661     0.82600
N93         N  0.24657705  0.25387658  0.32720139    -0.78100
C94         C  0.21658360  0.24030990  0.33357411     0.82700
N95         N  0.20192926  0.25429559  0.34851835    -0.79800
C96         C  0.36598396  0.14681648  0.10224433     0.80200
N97         N  0.33313141  0.13738580  0.10710306    -0.78100
C98         C  0.31546517  0.15595525  0.11977614     0.82600
N99         N  0.33116448  0.18328246  0.12772910    -0.78100
C100        C  0.36358231  0.19290960  0.12317039     0.82700
N101        N  0.38105264  0.17480508  0.11032120    -0.79800
C102        C  0.61329479  0.54871452  0.26941356     0.42400
N103        N  0.56914933  0.53550959  0.25349563     0.01300
C104        C  0.48166779  0.38008188  0.25681978    -0.06600
H105        H  0.61489335  0.36886391  0.24888331     0.06800
C106        C  0.60129286  0.43747579  0.18800600    -0.06900
Co107      Co  0.53707782  0.46990827  0.26686740     0.74200
N108        N  0.58096098  0.41244963  0.25296203    -0.26100
Co109      Co  0.54308410  0.40812686  0.23306741     0.74100
C110        C  0.62243309  0.40844669  0.19385803     0.42500
N111        N  0.56639663  0.51512263  0.19997662     0.00900
N112        N  0.57981854  0.41430744  0.21226198     0.01000
N113        N  0.47871374  0.42166612  0.27837528    -0.47000
H114        H  0.60589419  0.50131732  0.28792972     0.06800
N115        N  0.57803865  0.43521643  0.26617460     0.01300
N116        N  0.50472664  0.40479635  0.21346733     0.01000
C117        C  0.46631367  0.38490648  0.19531420     0.42600
N118        N  0.56563267  0.53807205  0.21318064    -0.25600
C119        C  0.47169960  0.51003609  0.27985178    -0.06500
N120        N  0.59454172  0.55848518  0.25486633    -0.46700
N121        N  0.48446872  0.37772686  0.21044159    -0.46900
C122        C  0.45259125  0.54015648  0.27331220     0.42400
N123        N  0.50340688  0.42821197  0.26643076     0.01300
N124        N  0.49084258  0.52951799  0.21495552    -0.25600
N125        N  0.57085933  0.51123552  0.26603643    -0.26100
N126        N  0.49183411  0.50572770  0.20215150     0.00900
H127        H  0.45406284  0.56920653  0.22178523     0.06800
H128        H  0.47077632  0.43277056  0.17682010     0.06800
N129        N  0.50582084  0.40435040  0.25368975    -0.26100
N130        N  0.57563758  0.43899563  0.20008565    -0.25800
N131        N  0.49374915  0.52893433  0.25479456     0.01300
C132        C  0.62104249  0.40365570  0.27393670     0.42700
C133        C  0.58735019  0.56403626  0.20911968    -0.07000
N134        N  0.50137679  0.42913018  0.20107867    -0.25800
H135        H  0.60390979  0.45399580  0.17627133     0.06800
N136        N  0.60083475  0.43020953  0.27927988    -0.47000
H137        H  0.59068312  0.58758192  0.21685688     0.06800
C138        C  0.44427784  0.53265245  0.19759593     0.42500
C139        C  0.59772809  0.51749738  0.27679032    -0.06500
Co140      Co  0.52994943  0.53381556  0.23415278     0.73800
N141        N  0.58698416  0.52453361  0.18646872    -0.46700
C142        C  0.46372246  0.39172492  0.27321364     0.42800
N143        N  0.46794038  0.55056594  0.25786188    -0.46700
Co144      Co  0.53368794  0.47220316  0.20047750     0.73900
C145        C  0.47765475  0.41893500  0.18901549    -0.07000
C146        C  0.60780992  0.39166932  0.25654033    -0.06600
N147        N  0.49648501  0.50493282  0.26738254    -0.26100
N148        N  0.60752312  0.39498956  0.20890792    -0.46900
H149        H  0.47744685  0.35725273  0.24864381     0.06800
C150        C  0.46176733  0.54793604  0.21316927    -0.07000
Cl151      Cl  0.53599298  0.47098689  0.23362827    -0.50000
C152        C  0.60150212  0.55483879  0.19147740     0.42500
H153        H  0.46838767  0.49531585  0.29218420     0.06800
N154        N  0.46447214  0.50669163  0.19139051    -0.46700
N155        N  0.53142084  0.95233497  0.49505436    -0.36700
N156        N  0.49406851  0.91524973  0.46610865    -0.57200
N157        N  0.52846090  0.95794615  0.43928126    -0.36700
N158        N  0.56891546  0.99193330  0.46828776    -0.57200
C159        C  0.51480809  0.92804295  0.50489748     0.26900
C160        C  0.55464785  0.96800183  0.50605171     0.26900
C161        C  0.51194601  0.93542888  0.42818407     0.26900
C162        C  0.55177328  0.97560044  0.42923355     0.26900
C163        C  0.47767566  0.90172181  0.48060857     0.35500
C164        C  0.47649113  0.90433799  0.45139141     0.35500
C165        C  0.58244942  0.00697098  0.48322548     0.35500
C166        C  0.58095810  0.00986346  0.45392751     0.35500
C167        C  0.52717342  0.92859526  0.52251367    -0.22000
C168        C  0.55211545  0.95384183  0.52326509    -0.22000
C169        C  0.52446463  0.93932970  0.41072302    -0.22000
C170        C  0.54960046  0.96463775  0.41137757    -0.22000
C171        C  0.44994576  0.88151037  0.47508360    -0.23000
C172        C  0.44920628  0.88312605  0.45658364    -0.23000
C173        C  0.60378397  0.03427267  0.47828567    -0.23000
C174        C  0.60274743  0.03619270  0.45978168    -0.23000
C175        C  0.48773648  0.90633130  0.49878964    -0.18400
C176        C  0.57722709  0.99546482  0.50121652    -0.18400
C177        C  0.57427670  0.00200540  0.43553108    -0.18400
C178        C  0.48523707  0.91218408  0.43326978    -0.18400
H179        H  0.51888380  0.91270873  0.53378424     0.14500
H180        H  0.56636243  0.96101261  0.53527742     0.14500
H181        H  0.51638152  0.92537663  0.39874986     0.14500
H182        H  0.56456570  0.97390160  0.39996523     0.14500
H183        H  0.43212399  0.86701133  0.48349814     0.12800
H184        H  0.43068538  0.87007074  0.44797273     0.12800
H185        H  0.61894026  0.05086594  0.48702291     0.12800
H186        H  0.61690612  0.05462792  0.45157676     0.12800
H187        H  0.52592407  0.95865572  0.48183676     0.26100
H188        H  0.52322548  0.96223623  0.45277819     0.26100
N189        N  0.03450953  0.47455588  0.99900749    -0.36700
N190        N  0.00383628  0.43489453  0.96887252    -0.57200
N191        N  0.05028097  0.46974154  0.94384157    -0.36700
N192        N  0.08420634  0.50568113  0.97433808    -0.57200
C193        C  0.01566907  0.45063173  0.00806220     0.26900
C194        C  0.05778240  0.48779654  0.01084863     0.26900
C195        C  0.03464420  0.44768919  0.93211202     0.26900
C196        C  0.07638532  0.48581298  0.93495166     0.26900
C197        C  0.98195467  0.42550121  0.98230936     0.35500
C198        C  0.98993789  0.42317412  0.95321773     0.35500
C199        C  0.09263348  0.52335565  0.98951093     0.35500
C200        C  0.09994824  0.52213876  0.96045896     0.35500
C201        C  0.02692549  0.44895643  0.02587971    -0.22000
C202        C  0.05335327  0.47247021  0.02764080    -0.22000
C203        C  0.05105242  0.44998208  0.91544172    -0.22000
C204        C  0.07732008  0.47394319  0.91723050    -0.22000
C205        C  0.95410547  0.40743748  0.97520352    -0.23000
C206        C  0.95929923  0.40565066  0.95685906    -0.23000
C207        C  0.11424059  0.55084442  0.98533696    -0.23000
C208        C  0.11887689  0.55011269  0.96693969    -0.23000
C209        C  0.98776748  0.43100327  0.00100854    -0.18400
C210        C  0.08222476  0.51415688  0.00717331    -0.18400
C211        C  0.09830371  0.51213247  0.94203519    -0.18400
C212        C  0.00493391  0.42694109  0.93574115    -0.18400
H213        H  0.01724226  0.43235927  0.03655295     0.14500
H214        H  0.06783824  0.47751609  0.03988771     0.14500
H215        H  0.04450732  0.43626487  0.90314563     0.14500
H216        H  0.09484265  0.48202375  0.90658852     0.14500
H217        H  0.93247285  0.39626877  0.98248304     0.12800
H218        H  0.94237064  0.39270337  0.94737164     0.12800
H219        H  0.12545872  0.56948603  0.99456911     0.12800
H220        H  0.13439400  0.56822551  0.95922288     0.12800
H221        H  0.03039578  0.48261866  0.98580601     0.26100
H222        H  0.04273448  0.47491781  0.95695081     0.26100
N223        N  0.03269526  0.46204437  0.44669170    -0.36700
N224        N  0.06266955  0.42496580  0.47745669    -0.57200
N225        N  0.02275730  0.46817701  0.50225698    -0.36700
N226        N  0.99581200  0.50814099  0.47155814    -0.57200
C227        C  0.05695722  0.44288994  0.43810512     0.26900
C228        C  0.02178222  0.48659317  0.43498140     0.26900
C229        C  0.04090801  0.44948036  0.51448024     0.26900
C230        C  0.00390618  0.49194588  0.51137529     0.26900
C231        C  0.07615753  0.40566904  0.46397024     0.35500
C232        C  0.07159418  0.40929344  0.49308462     0.35500
C233        C  0.98317953  0.52032206  0.45574357     0.35500
C234        C  0.97663645  0.52256487  0.48489086     0.35500
C235        C  0.06092810  0.45492776  0.42052666    -0.22000
C236        C  0.03877386  0.48249776  0.41856682    -0.22000
C237        C  0.03323372  0.46136070  0.53172973    -0.22000
C238        C  0.00986908  0.48803514  0.52978661    -0.22000
C239        C  0.09393477  0.37758274  0.47105209    -0.23000
C240        C  0.09115226  0.37993745  0.48947697    -0.23000
C241        C  0.95614776  0.54306835  0.45903258    -0.23000
C242        C  0.95201989  0.54451348  0.47746343    -0.23000
C243        C  0.07507349  0.41430617  0.44543168    -0.18400
C244        C  0.99601909  0.51184228  0.43835817    -0.18400
C245        C  0.98090363  0.51661262  0.50370368    -0.18400
C246        C  0.06363626  0.42154739  0.51064521    -0.18400
H247        H  0.07802407  0.44494452  0.41014854     0.14500
H248        H  0.03558751  0.49782054  0.40641939     0.14500
H249        H  0.04317436  0.45163783  0.54443373     0.14500
H250        H  0.99855068  0.50282475  0.54073729     0.14500
H251        H  0.10803827  0.35779138  0.46374428     0.12800
H252        H  0.10247671  0.36212397  0.49909915     0.12800
H253        H  0.94086265  0.55706666  0.44918965     0.12800
H254        H  0.93284036  0.55980058  0.48456267     0.12800
H255        H  0.02293746  0.45756956  0.45953925     0.26100
H256        H  0.02261255  0.46453447  0.48843597     0.26100
N257        N  0.54194935  0.95875803  0.95098823    -0.36700
N258        N  0.50663553  0.99911022  0.97947833    -0.57200
N259        N  0.54518480  0.96189418  0.00671114    -0.36700
N260        N  0.58451256  0.92556410  0.97798305    -0.57200
C261        C  0.52659043  0.98365335  0.94096183     0.26900
C262        C  0.56527206  0.94247521  0.94024230     0.26900
C263        C  0.52886973  0.98546668  0.01729817     0.26900
C264        C  0.57125980  0.94810513  0.01651132     0.26900
C265        C  0.48860906  0.00985764  0.96489049     0.35500
C266        C  0.48877392  0.00980725  0.99420857     0.35500
C267        C  0.59345666  0.90583030  0.96357262     0.35500
C268        C  0.59700410  0.90930322  0.99276818     0.35500
C269        C  0.54011593  0.98287432  0.92353183    -0.22000
C270        C  0.56446652  0.95689713  0.92309191    -0.22000
C271        C  0.54440358  0.98619799  0.03418407    -0.22000
C272        C  0.57123300  0.96275917  0.03366825    -0.22000
C273        C  0.45940029  0.02796781  0.97038092    -0.23000
C274        C  0.45944554  0.02781880  0.98894785    -0.23000
C275        C  0.61205601  0.87714460  0.96920571    -0.23000
C276        C  0.61439437  0.87937424  0.98767519    -0.23000
C277        C  0.49912982  0.00545130  0.94670289    -0.18400
C278        C  0.58638283  0.91416054  0.94532285    -0.18400
C279        C  0.59388585  0.92132514  0.01080058    -0.18400
C280        C  0.49977344  0.00561715  0.01231278    -0.18400
H281        H  0.53293960  0.99900227  0.91217307     0.14500
H282        H  0.57978061  0.94944397  0.91144799     0.14500
H283        H  0.53720063  0.00198350  0.04569125     0.14500
H284        H  0.58859629  0.95698474  0.04474440     0.14500
H285        H  0.44018418  0.04030881  0.96191617     0.12800
H286        H  0.44032923  0.04000123  0.99757581     0.12800
H287        H  0.62282539  0.85671851  0.96089831     0.12800
H288        H  0.62720711  0.86082939  0.99636411     0.12800
H289        H  0.53536891  0.95194339  0.96409427     0.26100
H290        H  0.53798784  0.95427876  0.99384154     0.26100
C291        C  0.70360627  0.73998606  0.82216621     0.80200
N292        N  0.73126008  0.75615988  0.81474547    -0.78100
C293        C  0.74362813  0.78621930  0.82142698     0.82600
N294        N  0.72794319  0.80045619  0.83610611    -0.78100
C295        C  0.69986499  0.78481087  0.84381435     0.82700
N296        N  0.68755181  0.75457182  0.83670884    -0.79800
C297        C  0.82440706  0.27911220  0.82604899     0.80200
N298        N  0.83524528  0.24683447  0.82175241    -0.78100
C299        C  0.86339715  0.23262196  0.82971899     0.82600
N300        N  0.88137810  0.25153969  0.84211085    -0.78100
C301        C  0.87073319  0.28408091  0.84672843     0.82700
N302        N  0.84213561  0.29766017  0.83860723    -0.79800
C303        C  0.38701029  0.10880731  0.83844154     0.80200
N304        N  0.40156068  0.13680026  0.83027931    -0.78100
C305        C  0.39025466  0.14784680  0.81390490     0.82600
N306        N  0.36416065  0.13043979  0.80562495    -0.78100
C307        C  0.34930164  0.10237258  0.81353535     0.82700
N308        N  0.36073962  0.09175985  0.83001734    -0.79800
C309        C  0.24362859  0.68828227  0.83079373     0.80200
N310        N  0.22769336  0.67258581  0.84490853    -0.78100
C311        C  0.24075331  0.64307396  0.85220706     0.82600
N312        N  0.27031998  0.62916356  0.84517355    -0.78100
C313        C  0.28657223  0.64484914  0.83098044     0.82700
N314        N  0.27285172  0.67418986  0.82389854    -0.79800
C315        C  0.19868008  0.28594985  0.60144869     0.80200
N316        N  0.22899533  0.29899370  0.60807252    -0.78100
C317        C  0.24608273  0.28229198  0.62154679     0.82600
N318        N  0.23260116  0.25265906  0.62829145    -0.78100
C319        C  0.20268550  0.23920470  0.62194457     0.82700
N320        N  0.18565331  0.25589875  0.60845107    -0.79800
C321        C  0.70397938  0.10997940  0.60300393     0.80200
N322        N  0.69168180  0.14071134  0.60926717    -0.78100
C323        C  0.70696803  0.15688298  0.62341951     0.82600
N324        N  0.73490407  0.14211523  0.63129661    -0.78100
C325        C  0.74774331  0.11152482  0.62531334     0.82700
N326        N  0.73208769  0.09535966  0.61112139    -0.79800
C327        C  0.47135895  0.52514801  0.76151423     0.42400
N328        N  0.48348829  0.48588624  0.74213348     0.01300
C329        C  0.63971477  0.39894589  0.73524034    -0.06600
H330        H  0.64402060  0.53298296  0.72583516     0.06800
C331        C  0.57299961  0.51557961  0.66897132    -0.06900
Co332      Co  0.55071885  0.45154461  0.75025813     0.74200
N333        N  0.60547712  0.49480879  0.73315581    -0.26100
Co334      Co  0.60446047  0.45656775  0.71287457     0.74100
C335        C  0.60442558  0.53442822  0.67384623     0.42500
N336        N  0.49451273  0.48743405  0.68788307     0.00900
N337        N  0.59607202  0.49364228  0.69302605     0.01000
N338        N  0.60499061  0.39753410  0.75991077    -0.47000
H339        H  0.52125938  0.51492282  0.77759670     0.06800
N340        N  0.58466291  0.49210944  0.74727601     0.01300
N341        N  0.60048838  0.41781489  0.69298060     0.01000
C342        C  0.60936807  0.37430077  0.67557480     0.42600
N343        N  0.47368047  0.48713141  0.70206765    -0.25600
C344        C  0.51566301  0.38376601  0.76318705    -0.06500
N345        N  0.45949225  0.50873824  0.74666415    -0.46700
N346        N  0.62302818  0.39285413  0.68937722    -0.46900
C347        C  0.48449923  0.36459174  0.75832334     0.42400
N348        N  0.59210434  0.41776971  0.74714464     0.01300
N349        N  0.47648710  0.41159605  0.70195969    -0.25600
N350        N  0.51002280  0.48596997  0.75329806    -0.26100
N351        N  0.49618760  0.41269172  0.68739421     0.00900
H352        H  0.43069026  0.38275418  0.70888310     0.06800
H353        H  0.55743179  0.38237238  0.66084408     0.06800
N354        N  0.61237640  0.41971159  0.73280977    -0.26100
N355        N  0.56978329  0.49104985  0.68176097    -0.25800
N356        N  0.48816936  0.40994805  0.74159303     0.01300
C357        C  0.61249368  0.53884360  0.75232367     0.42700
C358        C  0.45162823  0.51396774  0.70047753    -0.07000
N359        N  0.57293692  0.41624640  0.68244499    -0.25800
H360        H  0.55597676  0.51916726  0.65751885     0.06800
N361        N  0.58803874  0.51765095  0.75896466    -0.47000
H362        H  0.43153195  0.52078149  0.71003811     0.06800
C363        C  0.45796079  0.37387033  0.68166972     0.42500
C364        C  0.50452029  0.50971672  0.76619649    -0.06500
Co365      Co  0.47959785  0.44864521  0.72204394     0.73800
N366        N  0.48835155  0.51307416  0.67659303    -0.46700
C367        C  0.63465883  0.38428049  0.75320135     0.42800
N368        N  0.46875048  0.38230437  0.74483887    -0.46700
Co369      Co  0.53326853  0.45167447  0.68453492     0.73900
C370        C  0.57617694  0.38972962  0.67099333    -0.07000
C371        C  0.62446488  0.52378384  0.73515909    -0.06600
N372        N  0.51573780  0.41117508  0.75211043    -0.26100
N373        N  0.61749025  0.51908889  0.68873091    -0.46900
H374        H  0.66203518  0.39735328  0.72641609     0.06800
C375        C  0.45219687  0.38733684  0.69979167    -0.07000
Cl376      Cl  0.54203229  0.45196921  0.71741847    -0.50000
C377        C  0.46178255  0.53110962  0.68352493     0.42500
H378        H  0.53509217  0.37820602  0.77329184     0.06800
N379        N  0.48520692  0.39128396  0.67459927    -0.46700
C380        C  0.83500218  0.70246836  0.61102612     0.80200
N381        N  0.85199080  0.68545846  0.59760229    -0.78100
C382        C  0.83805039  0.65646058  0.59002304     0.82600
N383        N  0.80682515  0.64459310  0.59606875    -0.78100
C384        C  0.78959122  0.66165281  0.60942290     0.82700
N385        N  0.80405559  0.69026725  0.61684077    -0.79800
C386        C  0.37133864  0.78729696  0.60147727     0.80200
N387        N  0.34321041  0.80183995  0.60959497    -0.78100
C388        C  0.32721511  0.78533025  0.62346737     0.82600
N389        N  0.33939854  0.75440932  0.62904516    -0.78100
C390        C  0.36730048  0.73956646  0.62128518     0.82700
N391        N  0.38346056  0.75617884  0.60747009    -0.79800
C392        C  0.95835115  0.88455387  0.76552064     0.42400
N393        N  0.00289701  0.89209066  0.74851646     0.01300
C394        C  0.10851240  0.03494211  0.74433621    -0.06600
H395        H  0.97507687  0.06326462  0.73855012     0.06800
C396        C  0.97710950  0.98477918  0.68044224    -0.06900
Co397      Co  0.04150474  0.95594924  0.75925902     0.74200
N398        N  0.00363750  0.01639494  0.74384449    -0.26100
Co399      Co  0.04058332  0.01402941  0.72351923     0.74100
C400        C  0.95815690  0.01553889  0.68597405     0.42500
N401        N  0.00621212  0.90650074  0.69436824     0.00900
N402        N  0.00205726  0.00907378  0.70345181     0.01000
N403        N  0.10706750  0.99641043  0.76739378    -0.47000
H404        H  0.97070035  0.93369861  0.78206751     0.06800
N405        N  0.00435912  0.99497760  0.75771931     0.01300
N406        N  0.07786336  0.01163527  0.70351888     0.01000
C407        C  0.11591330  0.02808243  0.68421683     0.42600
N408        N  0.00561206  0.88479260  0.70812715    -0.25600
C409        C  0.10295799  0.90994647  0.77318200    -0.06500
N410        N  0.97613102  0.87114724  0.75132097    -0.46700
N411        N  0.09976753  0.03683615  0.69968888    -0.46900
C412        C  0.11897936  0.87756342  0.76715963     0.42400
N413        N  0.07958125  0.99343984  0.75689317     0.01300
N414        N  0.08105416  0.88760133  0.70902177    -0.25600
N415        N  0.00347146  0.91823108  0.76004887    -0.26100
N416        N  0.08092906  0.91032201  0.69566985     0.00900
H417        H  0.11731388  0.84763408  0.71665013     0.06800
H418        H  0.10579561  0.98040797  0.66614680     0.06800
N419        N  0.07960512  0.01561694  0.74328082    -0.26100
N420        N  0.00351984  0.98290370  0.69197522    -0.25800
N421        N  0.07875701  0.89149788  0.74871004     0.01300
C422        C  0.96549894  0.03238439  0.76466633     0.42700
C423        C  0.98239731  0.85981464  0.70476484    -0.07000
N424        N  0.07817069  0.98663263  0.69142219    -0.25800
H425        H  0.97226133  0.96675720  0.66954595     0.06800
N426        N  0.98267569  0.00426014  0.77074822    -0.47000
H427        H  0.97799467  0.83711532  0.71303802     0.06800
C428        C  0.12755192  0.88192407  0.69157802     0.42500
C429        C  0.97654353  0.91569196  0.77129553    -0.06500
Co430      Co  0.04187218  0.88809923  0.72864765     0.73800
N431        N  0.98502223  0.89714776  0.68119115    -0.46700
C432        C  0.12659501  0.02201364  0.76036248     0.42800
N433        N  0.10231748  0.86760228  0.75208261    -0.46700
Co434      Co  0.04225431  0.94643987  0.69303092     0.73900
C435        C  0.10126562  0.99485588  0.67846130    -0.07000
C436        C  0.97964557  0.04073600  0.74691225    -0.06600
N437        N  0.07854803  0.91669145  0.76072308    -0.26100
N438        N  0.97509558  0.02950730  0.70029723    -0.46900
H439        H  0.11631830  0.05473760  0.73481892     0.06800
C440        C  0.10973023  0.86816082  0.70753437    -0.07000
Cl441      Cl  0.04137053  0.95113459  0.72612389    -0.50000
C442        C  0.96881189  0.86819298  0.68689776     0.42500
H443        H  0.10804771  0.92513472  0.78518326     0.06800
N444        N  0.10808251  0.90777305  0.68495428    -0.46700
C445        C  0.23653510  0.87479122  0.63080137    -0.17900
C446        C  0.20915056  0.88878113  0.64078753    -0.20100
C447        C  0.19883222  0.87342182  0.65714418     0.20600
C448        C  0.21647846  0.84410438  0.66371262    -0.03000
C449        C  0.24401438  0.83004751  0.65366721    -0.06000
C450        C  0.25401173  0.84531896  0.63707039     0.20900
C451        C  0.26127481  0.80046978  0.66015997     0.19000
C452        C  0.25139773  0.78545258  0.67665848    -0.17500
C453        C  0.22404685  0.79936976  0.68661062    -0.19700
C454        C  0.20623185  0.82844802  0.68016998     0.20500
C455        C  0.17778774  0.84158649  0.68965796    -0.32800
C456        C  0.15943455  0.86996243  0.68280479     0.01200
C457        C  0.17058350  0.88630825  0.66681837    -0.24100
C458        C  0.28121883  0.83074561  0.62705800    -0.28700
C459        C  0.29828668  0.80109977  0.63348337     0.06900
C460        C  0.28811764  0.78623951  0.65004472    -0.27300
H461        H  0.24389621  0.88687783  0.61813416     0.11600
H462        H  0.19577940  0.91137272  0.63561965     0.12700
H463        H  0.26465676  0.76276300  0.68179110     0.11800
H464        H  0.21656648  0.78715711  0.69922724     0.11100
H465        H  0.16948196  0.82915239  0.70206842     0.16400
H466        H  0.15665343  0.90851569  0.66157851     0.12400
H467        H  0.28894809  0.84232023  0.61431117     0.15200
H468        H  0.30126718  0.76354941  0.65526176     0.15000
C469        C  0.93976299  0.82065807  0.62682826    -0.17900
C470        C  0.92095913  0.79748824  0.61606563    -0.20100
C471        C  0.89548629  0.77613771  0.62380355     0.20600
C472        C  0.88859890  0.77856015  0.64254426    -0.03000
C473        C  0.90802296  0.80136160  0.65344592    -0.06000
C474        C  0.93366255  0.82258466  0.64553503     0.20900
C475        C  0.90211263  0.80252152  0.67230656     0.19000
C476        C  0.87625458  0.78169733  0.68001493    -0.17500
C477        C  0.85654362  0.75963621  0.66916511    -0.19700
C478        C  0.86277804  0.75766746  0.65049203     0.20500
C479        C  0.84430426  0.73434410  0.63975961    -0.32800
C480        C  0.85202544  0.73053990  0.62126694     0.01200
C481        C  0.87738041  0.75179732  0.61328399    -0.24100
C482        C  0.95293284  0.84506286  0.65652339    -0.28700
C483        C  0.94750359  0.84576127  0.67533127     0.06900
C484        C  0.92227655  0.82433860  0.68315026    -0.27300
H485        H  0.95938941  0.83676655  0.62055515     0.11600
H486        H  0.92650920  0.79609779  0.60171075     0.12700
H487        H  0.87133239  0.78240852  0.69444694     0.11800
H488        H  0.83680103  0.74365593  0.67543138     0.11100
H489        H  0.82498984  0.71787333  0.64606457     0.16400
H490        H  0.88324577  0.74908891  0.59900537     0.12400
H491        H  0.97274157  0.86135949  0.65052318     0.15200
H492        H  0.91807421  0.82500058  0.69765569     0.15000
C493        C  0.47164397  0.62114965  0.63668514    -0.17900
C494        C  0.45830687  0.64996046  0.62758784    -0.20100
C495        C  0.42621099  0.66396233  0.63264995     0.20600
C496        C  0.40748244  0.64880600  0.64708231    -0.03000
C497        C  0.42113099  0.62010977  0.65641629    -0.06000
C498        C  0.45323219  0.60612048  0.65109112     0.20900
C499        C  0.40260700  0.60539744  0.67105273     0.19000
C500        C  0.37055316  0.61938386  0.67612408    -0.17500
C501        C  0.35683372  0.64756444  0.66673652    -0.19700
C502        C  0.37514493  0.66238653  0.65226496     0.20500
C503        C  0.36182815  0.69096684  0.64311729    -0.32800
C504        C  0.38067131  0.70701834  0.62909386     0.01200
C505        C  0.41271095  0.69310229  0.62374671    -0.24100
C506        C  0.46625624  0.57721858  0.66021397    -0.28700
C507        C  0.44785182  0.56232496  0.67473608     0.06900
C508        C  0.41626572  0.57674585  0.68023516    -0.27300
H509        H  0.49640890  0.61066261  0.63248350     0.11600
H510        H  0.47306514  0.66125280  0.61658559     0.12700
H511        H  0.35601557  0.60842429  0.68729511     0.11800
H512        H  0.33197304  0.65792367  0.67087300     0.11100
H513        H  0.33695138  0.70119416  0.64732851     0.16400
H514        H  0.42741560  0.70528206  0.61297755     0.12400
H515        H  0.49082369  0.56629534  0.65596655     0.15200
H516        H  0.40198909  0.56528492  0.69136177     0.15000
C517        C  0.68585808  0.58564769  0.60719141    -0.17900
C518        C  0.65862700  0.56881399  0.61615994    -0.20100
C519        C  0.65261283  0.57473991  0.63464704     0.20600
C520        C  0.67328674  0.59905049  0.64397832    -0.03000
C521        C  0.70035222  0.61640618  0.63486748    -0.06000
C522        C  0.70729790  0.60899040  0.61650346     0.20900
C523        C  0.72132324  0.64013522  0.64435970     0.19000
C524        C  0.71467965  0.64697627  0.66267885    -0.17500
C525        C  0.68834677  0.62930266  0.67178159    -0.19700
C526        C  0.66800735  0.60484837  0.66264044     0.20500
C527        C  0.64371709  0.58484573  0.67204536    -0.32800
C528        C  0.62422501  0.55955223  0.66303153     0.01200
C529        C  0.62762969  0.55552120  0.64421218    -0.24100
C530        C  0.73614638  0.62424390  0.60799067    -0.28700
C531        C  0.75760212  0.64729052  0.61756369     0.06900
C532        C  0.74938007  0.65572626  0.63559120    -0.27300
H533        H  0.69057210  0.57988360  0.59305538     0.11600
H534        H  0.64294253  0.55035199  0.60876526     0.12700
H535        H  0.73051440  0.66526833  0.67010699     0.11800
H536        H  0.68440410  0.63418684  0.68607406     0.11100
H537        H  0.64089404  0.58794609  0.68656037     0.16400
H538        H  0.61273246  0.53574334  0.63729776     0.12400
H539        H  0.74213503  0.61789563  0.59404738     0.15200
H540        H  0.76577424  0.67334622  0.64314470     0.15000
C541        C  0.69341509  0.27857533  0.67729743    -0.17900
C542        C  0.70671148  0.24791627  0.67007736    -0.20100
C543        C  0.69344245  0.23444848  0.65388314     0.20600
C544        C  0.66663419  0.25201143  0.64478323    -0.03000
C545        C  0.65309582  0.28285451  0.65211651    -0.06000
C546        C  0.66654780  0.29613482  0.66847171     0.20900
C547        C  0.62594271  0.30021350  0.64318374     0.19000
C548        C  0.61294791  0.28693515  0.62686302    -0.17500
C549        C  0.62650906  0.25640097  0.61953971    -0.19700
C550        C  0.65319315  0.23863481  0.62845663     0.20500
C551        C  0.66653873  0.20764184  0.62142266    -0.32800
C552        C  0.69313729  0.18988611  0.63052912     0.01200
C553        C  0.70646633  0.20360325  0.64671505    -0.23700
C554        C  0.65261654  0.32648865  0.67585011    -0.28700
C555        C  0.62509957  0.34344057  0.66723638     0.06900
C556        C  0.61206157  0.33035015  0.65083201    -0.27300
H557        H  0.70398756  0.28842939  0.68985624     0.11600
H558        H  0.72733415  0.23467083  0.67719293     0.12700
H559        H  0.59216474  0.30006495  0.61981468     0.11800
H560        H  0.61596736  0.24655621  0.60697076     0.11100
H561        H  0.65615367  0.19736657  0.60890522     0.16400
H562        H  0.72688416  0.19015181  0.65389646     0.12400
H563        H  0.66269422  0.33650200  0.68849715     0.15200
H564        H  0.59110414  0.34352117  0.64396889     0.15000
C565        C  0.86331793  0.00427564  0.64163070    -0.17900
C566        C  0.83386008  0.01756191  0.63312097    -0.20100
C567        C  0.82060338  0.04999892  0.63814126     0.20600
C568        C  0.83696175  0.06900616  0.65205676    -0.03000
C569        C  0.86654968  0.05552011  0.66071741    -0.06000
C570        C  0.87989591  0.02314454  0.65536108     0.20900
C571        C  0.88287183  0.07452898  0.67464802     0.19000
C572        C  0.86934743  0.10672901  0.67984702    -0.17500
C573        C  0.84014927  0.12019337  0.67119103    -0.19700
C574        C  0.82390641  0.10158429  0.65725848     0.20500
C575        C  0.79489013  0.11508790  0.64841820    -0.32800
C576        C  0.77843067  0.09647427  0.63443756     0.01200
C577        C  0.79141962  0.06382156  0.62943813    -0.24100
C578        C  0.90968327  0.01026213  0.66376109    -0.28700
C579        C  0.92631676  0.02919574  0.67753792     0.06900
C580        C  0.91257023  0.06115812  0.68302395    -0.27300
H581        H  0.87321636  0.97927549  0.63742391     0.11600
H582        H  0.82158083  0.00256376  0.62252605     0.12700
H583        H  0.88148893  0.12161314  0.69052914     0.11800
H584        H  0.83031061  0.14523371  0.67536765     0.11100
H585        H  0.78523214  0.14028125  0.65247074     0.16400
H586        H  0.77892792  0.04918450  0.61876776     0.12400
H587        H  0.91974349  0.98541195  0.65949269     0.15200
H588        H  0.92520081  0.07580515  0.69365003     0.15000
C589        C  0.12693466  0.09748865  0.62854282    -0.17900
C590        C  0.13690596  0.12854015  0.62018732    -0.20100
C591        C  0.15729694  0.15281512  0.62949500     0.20600
C592        C  0.16782156  0.14556276  0.64740217    -0.03000
C593        C  0.15767640  0.11437878  0.65584127    -0.06000
C594        C  0.13706337  0.09020160  0.64638190     0.20900
C595        C  0.16754849  0.10777875  0.67389851     0.19000
C596        C  0.18793779  0.13190034  0.68324511    -0.17500
C597        C  0.19833038  0.16254051  0.67481998    -0.19700
C598        C  0.18830714  0.16958594  0.65696719     0.20500
C599        C  0.19866679  0.20021755  0.64852119    -0.32800
C600        C  0.18884391  0.20757026  0.63061049     0.01200
C601        C  0.16764195  0.18403077  0.62122396    -0.24100
C602        C  0.12585347  0.05990923  0.65520388    -0.28700
C603        C  0.13434572  0.05423735  0.67344500     0.06900
C604        C  0.15575282  0.07781827  0.68255203    -0.27300
H605        H  0.11097607  0.07932274  0.62110909     0.11600
H606        H  0.12861561  0.13358863  0.60644324     0.12700
H607        H  0.19563145  0.12718205  0.69712099     0.11800
H608        H  0.21406989  0.18083302  0.68230470     0.11100
H609        H  0.21460660  0.21842551  0.65596713     0.16400
H610        H  0.16006821  0.18953246  0.60740604     0.12400
H611        H  0.10869807  0.04203989  0.64830525     0.15200
H612        H  0.16195086  0.07350844  0.69668791     0.15000
C613        C  0.37726356  0.37481617  0.63006038    -0.17900
C614        C  0.34655850  0.36314653  0.62201036    -0.20100
C615        C  0.32754057  0.33594158  0.62981232     0.20600
C616        C  0.33956716  0.32055547  0.64597026    -0.03000
C617        C  0.37036461  0.33241291  0.65413170    -0.06000
C618        C  0.38943220  0.35956329  0.64608515     0.20900
C619        C  0.38177367  0.31740803  0.67050205     0.19000
C620        C  0.36263453  0.29056937  0.67846702    -0.17500
C621        C  0.33239593  0.27856906  0.67027697    -0.19700
C622        C  0.32072630  0.29340934  0.65407553     0.20500
C623        C  0.29044934  0.28147685  0.64590730    -0.32800
C624        C  0.27821731  0.29628472  0.62972099     0.01200
C625        C  0.29678637  0.32378727  0.62179225    -0.24100
C626        C  0.41977702  0.37151560  0.65449448    -0.28700
C627        C  0.43055890  0.35718136  0.67103370     0.06900
C628        C  0.41164613  0.33007213  0.67888037    -0.27300
H629        H  0.39141513  0.39589887  0.62379408     0.11600
H630        H  0.33770918  0.37538236  0.60966522     0.12700
H631        H  0.37101272  0.27891139  0.69105635     0.11800
H632        H  0.31803624  0.25774985  0.67666104     0.11100
H633        H  0.27629542  0.26056269  0.65233911     0.16400
H634        H  0.28756254  0.33544327  0.60936238     0.12400
H635        H  0.43395120  0.39309570  0.64869992     0.15200
H636        H  0.41979423  0.31946366  0.69177997     0.15000
C637        C  0.39239886  0.62336324  0.76922949    -0.17900
C638        C  0.36657230  0.64016839  0.77912895    -0.20100
C639        C  0.35623481  0.62736065  0.79606933     0.20600
C640        C  0.37271312  0.59802311  0.80341435    -0.03000
C641        C  0.39933851  0.58152094  0.79360709    -0.06000
C642        C  0.40862706  0.59383402  0.77625614     0.20900
C643        C  0.41590849  0.55210731  0.80090591     0.19000
C644        C  0.40578868  0.53957697  0.81793826    -0.17500
C645        C  0.37889695  0.55558552  0.82751264    -0.19700
C646        C  0.36200682  0.58466971  0.82032009     0.20500
C647        C  0.33419142  0.60023185  0.82953203    -0.32800
C648        C  0.31731118  0.62923201  0.82212351     0.01200
C649        C  0.32906612  0.64293577  0.80554018    -0.24100
C650        C  0.43318059  0.57574704  0.76601712    -0.28700
C651        C  0.44926645  0.54630449  0.77315480     0.06900
C652        C  0.44139031  0.53506322  0.79073561    -0.27300
H653        H  0.39939862  0.63322248  0.75599174     0.11600
H654        H  0.35414496  0.66276311  0.77335768     0.12700
H655        H  0.41820308  0.51696348  0.82369405     0.11800
H656        H  0.37110942  0.54503221  0.84047872     0.11100
H657        H  0.32550677  0.58956836  0.84232440     0.16400
H658        H  0.31639520  0.66524975  0.79961156     0.12400
H659        H  0.43940883  0.58414043  0.75238777     0.15200
H660        H  0.45366696  0.51194720  0.79604420     0.15000
C661        C  0.22418078  0.75895067  0.77629831    -0.17900
C662        C  0.20651537  0.78542165  0.76731351    -0.20100
C663        C  0.18303992  0.80653735  0.77672411     0.20600
C664        C  0.17720981  0.80094346  0.79535258    -0.03000
C665        C  0.19440742  0.77371847  0.80430834    -0.06000
C666        C  0.21818495  0.75283130  0.79474992     0.20900
C667        C  0.18743966  0.76711494  0.82274139     0.19000
C668        C  0.16379051  0.78810210  0.83210844    -0.17500
C669        C  0.14722918  0.81553622  0.82331542    -0.19700
C670        C  0.15372137  0.82214602  0.80495744     0.20500
C671        C  0.13644673  0.84896285  0.79590848    -0.32800
C672        C  0.14140213  0.85383557  0.77728281     0.01200
C673        C  0.16470665  0.83266937  0.76776793    -0.24100
C674        C  0.23507174  0.72577805  0.80371834    -0.28700
C675        C  0.22772471  0.71859658  0.82197634     0.06900
C676        C  0.20392044  0.73939232  0.83141527    -0.27300
H677        H  0.24222376  0.74298862  0.76876458     0.11600
H678        H  0.21119112  0.78936803  0.75300133     0.12700
H679        H  0.15809447  0.78329469  0.84624578     0.11800
H680        H  0.12904619  0.83136412  0.83082842     0.11100
H681        H  0.11779717  0.86479646  0.80311705     0.16400
H682        H  0.16812482  0.83628949  0.75331992     0.12400
H683        H  0.25309770  0.70959117  0.79628945     0.15200
H684        H  0.19821401  0.73398948  0.84550292     0.15000
C685        C  0.40205266  0.26712854  0.75823678    -0.17900
C686        C  0.38903557  0.23672708  0.76592805    -0.20100
C687        C  0.40403620  0.22296849  0.78163040     0.20600
C688        C  0.43257429  0.23984535  0.78963429    -0.03000
C689        C  0.44583215  0.27045846  0.78181523    -0.06000
C690        C  0.43034102  0.28421016  0.76609387     0.20900
C691        C  0.47439799  0.28738627  0.78976972     0.19000
C692        C  0.48946007  0.27353245  0.80546321    -0.17500
C693        C  0.47617847  0.24326760  0.81327733    -0.19700
C694        C  0.44771263  0.22627293  0.80548395     0.20500
C695        C  0.43399551  0.19608293  0.81329413    -0.32800
C696        C  0.40540450  0.17917079  0.80541022     0.01200
C697        C  0.39077469  0.19275881  0.78950570    -0.24100
C698        C  0.44324526  0.31489326  0.75853245    -0.28700
C699        C  0.47157393  0.33200032  0.76638415     0.06900
C700        C  0.48719221  0.31797509  0.78195434    -0.27300
H701        H  0.38992727  0.27733588  0.74615190     0.11600
H702        H  0.36710316  0.22404651  0.75963149     0.12700
H703        H  0.51141362  0.28620153  0.81174760     0.11800
H704        H  0.48813601  0.23318661  0.82543811     0.11100
H705        H  0.44556633  0.18586355  0.82553110     0.16400
H706        H  0.36871823  0.18009009  0.78330901     0.12400
H707        H  0.43120246  0.32545989  0.74649904     0.15200
H708        H  0.50900277  0.33098048  0.78816192     0.15000
C709        C  0.21091719  0.02196146  0.81012764    -0.17900
C710        C  0.24253859  0.03239741  0.81751939    -0.20100
C711        C  0.26614393  0.05164562  0.80714207     0.20600
C712        C  0.25827702  0.05955167  0.78895509    -0.03000
C713        C  0.22629106  0.04915398  0.78151471    -0.06000
C714        C  0.20237788  0.03067637  0.79225781     0.20900
C715        C  0.21788535  0.05801853  0.76350498     0.19000
C716        C  0.24216320  0.07593210  0.75288600    -0.17500
C717        C  0.27391337  0.08620453  0.76026104    -0.19700
C718        C  0.28186309  0.07878750  0.77838142     0.20500
C719        C  0.31235839  0.09135848  0.78630177    -0.32800
C720        C  0.31955674  0.08507067  0.80468685     0.01200
C721        C  0.29685049  0.06420241  0.81483936    -0.24100
C722        C  0.17008186  0.02176248  0.78506893    -0.28700
C723        C  0.16105642  0.03148015  0.76737501     0.06900
C724        C  0.18517233  0.04929722  0.75656680    -0.27300
H725        H  0.19286528  0.00759354  0.81849746     0.11600
H726        H  0.24824987  0.02597214  0.83146796     0.12700
H727        H  0.23633215  0.08257452  0.73897791     0.11800
H728        H  0.29192373  0.10065882  0.75190875     0.11100
H729        H  0.32997904  0.10694321  0.77827090     0.16400
H730        H  0.30221986  0.05904127  0.82897470     0.12400
H731        H  0.15163782  0.00779604  0.79340893     0.15200
H732        H  0.17857817  0.05627581  0.74279676     0.15000
C733        C  0.85024864  0.13313069  0.78857279    -0.17900
C734        C  0.86489084  0.10557256  0.77897569    -0.20100
C735        C  0.89867350  0.09451077  0.78281811     0.20600
C736        C  0.91751824  0.11067396  0.79686214    -0.03000
C737        C  0.90287613  0.13875561  0.80640515    -0.06000
C738        C  0.86929453  0.15027502  0.80203954     0.20900
C739        C  0.92229262  0.15604831  0.81984424     0.19000
C740        C  0.95568885  0.14425355  0.82406072    -0.17500
C741        C  0.97011141  0.11620823  0.81471559    -0.19700
C742        C  0.95142315  0.09955246  0.80095399     0.20500
C743        C  0.96634431  0.07263141  0.79086264    -0.32800
C744        C  0.94807127  0.05739575  0.77651056     0.01200
C745        C  0.91430340  0.06823299  0.77256344    -0.24100
C746        C  0.85588182  0.17965885  0.81063509    -0.28700
C747        C  0.87581687  0.19837139  0.82328212     0.06900
C748        C  0.90858058  0.18567634  0.82826268    -0.27300
H749        H  0.82434028  0.14162578  0.78513201     0.11600
H750        H  0.84999962  0.09328169  0.76834548     0.12700
H751        H  0.97092472  0.15713643  0.83435986     0.11800
H752        H  0.99616176  0.10796348  0.81801910     0.11100
H753        H  0.99266553  0.06445628  0.79365495     0.16400
H754        H  0.90046242  0.05647838  0.76137768     0.12400
H755        H  0.83037228  0.18878280  0.80682161     0.15200
H756        H  0.92406877  0.19966898  0.83805951     0.15000
C757        C  0.70003953  0.37614671  0.81025120    -0.17900
C758        C  0.72695664  0.36177145  0.82043754    -0.20100
C759        C  0.74803166  0.33572787  0.81306489     0.20600
C760        C  0.74200891  0.32419422  0.79520026    -0.03000
C761        C  0.71521882  0.33901309  0.78484760    -0.06000
C762        C  0.69391755  0.36486973  0.79248536     0.20900
C763        C  0.70979903  0.32797442  0.76684533     0.19000
C764        C  0.73088129  0.30204110  0.75943231    -0.17500
C765        C  0.75705810  0.28696158  0.76979071    -0.19700
C766        C  0.76279607  0.29788793  0.78764284     0.20500
C767        C  0.78913890  0.28307330  0.79801354    -0.32800
C768        C  0.79561416  0.29462398  0.81574317     0.01200
C769        C  0.77507339  0.32107675  0.82318317    -0.24100
C770        C  0.66694181  0.37897980  0.78218552    -0.28700
C771        C  0.66169957  0.36814617  0.76425250     0.06900
C772        C  0.68337701  0.34304072  0.75657774    -0.27300
H773        H  0.68402952  0.39612474  0.81626251     0.11600
H774        H  0.73121710  0.37094312  0.83410824     0.12700
H775        H  0.72701060  0.29330006  0.74565074     0.11800
H776        H  0.77293212  0.26684020  0.76380972     0.11100
H777        H  0.80514190  0.26295522  0.79209735     0.16400
H778        H  0.77992150  0.32996173  0.83686069     0.12400
H779        H  0.65052907  0.39892447  0.78795307     0.15200
H780        H  0.67931910  0.33495865  0.74268752     0.15000
C781        C  0.60311473  0.61917886  0.80393271    -0.17900
C782        C  0.61637766  0.64653322  0.81426041    -0.20100
C783        C  0.64754920  0.66267580  0.80928379     0.20600
C784        C  0.66574763  0.65066859  0.79389695    -0.03000
C785        C  0.65221311  0.62341967  0.78337879    -0.06000
C786        C  0.62073594  0.60765699  0.78841593     0.20900
C787        C  0.67012200  0.61211446  0.76775347     0.19000
C788        C  0.70160563  0.62768357  0.76297469    -0.17500
C789        C  0.71517861  0.65442493  0.77349001    -0.19700
C790        C  0.69726398  0.66622572  0.78882363     0.20500
C791        C  0.70995024  0.69405689  0.79881780    -0.32800
C792        C  0.69120936  0.70758817  0.81359367     0.01200
C793        C  0.66039549  0.69117453  0.81906647    -0.24100
C794        C  0.60761778  0.58051037  0.77789112    -0.28700
C795        C  0.62551496  0.56903517  0.76237744     0.06900
C796        C  0.65647777  0.58520384  0.75726634    -0.27300
H797        H  0.57894107  0.60719649  0.80800591     0.11600
H798        H  0.60210833  0.65525250  0.82604334     0.12700
H799        H  0.71571685  0.61920482  0.75109105     0.11800
H800        H  0.73947392  0.66623489  0.76947616     0.11100
H801        H  0.73408131  0.70591532  0.79457197     0.16400
H802        H  0.64595939  0.70111725  0.83052980     0.12400
H803        H  0.58356739  0.56812654  0.78187190     0.15200
H804        H  0.67042271  0.57633096  0.74541108     0.15000
C805        C  0.83533338  0.78282097  0.77486981    -0.17900
C806        C  0.86574908  0.79602777  0.76722814    -0.20100
C807        C  0.88076916  0.82638374  0.77409543     0.20600
C808        C  0.86492090  0.84359657  0.78881244    -0.03000
C809        C  0.83435728  0.83015275  0.79660017    -0.06000
C810        C  0.81957763  0.79963672  0.78957938     0.20900
C811        C  0.81878576  0.84708628  0.81148698     0.19000
C812        C  0.83373049  0.87752006  0.81829977    -0.17500
C813        C  0.86389669  0.89097718  0.81050844    -0.19700
C814        C  0.87969340  0.87414227  0.79581937     0.20500
C815        C  0.91007758  0.88729739  0.78807349    -0.32800
C816        C  0.92615965  0.87028127  0.77344765     0.01200
C817        C  0.91133738  0.83980881  0.76652941    -0.24100
C818        C  0.78958101  0.78613704  0.79754382    -0.28700
C819        C  0.77424026  0.80234091  0.81267682     0.06900
C820        C  0.78883377  0.83307714  0.81943609    -0.27300
H821        H  0.82425453  0.75929291  0.76935105     0.11600
H822        H  0.87753386  0.78248492  0.75595167     0.12700
H823        H  0.82215532  0.89086038  0.82969986     0.11800
H824        H  0.87498082  0.91449293  0.81603553     0.11100
H825        H  0.92110050  0.91081528  0.79356667     0.16400
H826        H  0.92355047  0.82657236  0.75526852     0.12400
H827        H  0.77857024  0.76254458  0.79205662     0.15200
H828        H  0.77719878  0.84586796  0.83099668     0.15000
C829        C  0.47471828  0.11436161  0.88685523    -0.17900
C830        C  0.49051124  0.09997742  0.90210579    -0.20100
C831        C  0.47639067  0.07047405  0.91038307     0.20600
C832        C  0.44545290  0.05591928  0.90357785    -0.03000
C833        C  0.42948923  0.07049334  0.88822656    -0.06000
C834        C  0.44454721  0.09948265  0.87967034     0.20900
C835        C  0.39910295  0.05539897  0.88112092     0.19000
C836        C  0.38430191  0.02662026  0.88979577    -0.17500
C837        C  0.40020401  0.01205985  0.90497578    -0.19700
C838        C  0.43106858  0.02613450  0.91174830     0.20500
C839        C  0.44837218  0.01037527  0.92618960    -0.32800
C840        C  0.47963039  0.02418161  0.93257698     0.01200
C841        C  0.49316656  0.05461729  0.92498654    -0.24100
C842        C  0.42981269  0.11246836  0.86376699    -0.28700
C843        C  0.40035082  0.09670821  0.85613643     0.06900
C844        C  0.38467041  0.06866194  0.86516116    -0.27300
H845        H  0.48647264  0.13675066  0.88047318     0.11600
H846        H  0.51414394  0.11152141  0.90721087     0.12700
H847        H  0.36083352  0.01489556  0.88460012     0.11800
H848        H  0.38872120  0.98937901  0.91120892     0.11100
H849        H  0.43808903  0.98691610  0.93223186     0.16400
H850        H  0.51732474  0.06510311  0.93007577     0.12400
H851        H  0.44200968  0.13427970  0.85706494     0.15200
H852        H  0.36173996  0.05655183  0.85955190     0.15000
C853        C  0.69132484  0.87780081  0.91188793    -0.17900
C854        C  0.70712301  0.85956918  0.89776852    -0.20100
C855        C  0.68728764  0.83891966  0.88608861     0.20600
C856        C  0.65123260  0.83606154  0.88883708    -0.03000
C857        C  0.63520491  0.85475869  0.90300786    -0.06000
C858        C  0.65538797  0.87585216  0.91451865     0.20900
C859        C  0.59900341  0.85271115  0.90550503     0.19000
C860        C  0.57930117  0.83144445  0.89402802    -0.17500
C861        C  0.59523985  0.81266859  0.88008136    -0.19700
C862        C  0.63115480  0.81498146  0.87727193     0.20500
C863        C  0.64727427  0.79720066  0.86291838    -0.32800
C864        C  0.68304956  0.80099268  0.85974768     0.01200
C865        C  0.70285154  0.82160472  0.87152979    -0.24100
C866        C  0.63927945  0.89488996  0.92834259    -0.28700
C867        C  0.60323394  0.89330866  0.93077634     0.06900
C868        C  0.58321289  0.87215366  0.91934193    -0.27300
H869        H  0.70719384  0.89375299  0.92064001     0.11600
H870        H  0.73486736  0.86186410  0.89588667     0.12700
H871        H  0.55150455  0.82946300  0.89578010     0.11800
H872        H  0.57939697  0.79663289  0.87135622     0.11100
H873        H  0.63183219  0.78141872  0.85386363     0.16400
H874        H  0.73048860  0.82431155  0.86930789     0.12400
H875        H  0.65464399  0.91125951  0.93714908     0.15200
H876        H  0.55539890  0.87091167  0.92127293     0.15000
C877        C  0.07208903  0.32472534  0.55393958    -0.17900
C878        C  0.09167636  0.30483901  0.56598514    -0.20100
C879        C  0.12550476  0.31483921  0.57057659     0.20600
C880        C  0.13974970  0.34520109  0.56297079    -0.03000
C881        C  0.11998971  0.36529436  0.55082936    -0.06000
C882        C  0.08599336  0.35494904  0.54628227     0.20900
C883        C  0.13440006  0.39549063  0.54308809     0.19000
C884        C  0.16825326  0.40542035  0.54761713    -0.17500
C885        C  0.18774062  0.38561408  0.55973324    -0.19700
C886        C  0.17373767  0.35548415  0.56747133     0.20500
C887        C  0.19304952  0.33563877  0.57973071    -0.32800
C888        C  0.17890912  0.30554494  0.58760106     0.01200
C889        C  0.14518898  0.29516474  0.58275825    -0.24100
C890        C  0.06685001  0.37458540  0.53385237    -0.28700
C891        C  0.08143154  0.40418862  0.52588769     0.06900
C892        C  0.11496907  0.41476394  0.53065672    -0.27300
H893        H  0.04609611  0.31638005  0.55055338     0.11600
H894        H  0.08034910  0.28160481  0.57171687     0.12700
H895        H  0.17970067  0.42847182  0.54174860     0.11800
H896        H  0.21380609  0.39385261  0.56304061     0.11100
H897        H  0.21901124  0.34389811  0.58325780     0.16400
H898        H  0.13391931  0.27209114  0.58870384     0.12400
H899        H  0.04114972  0.36628650  0.52984409     0.15200
H900        H  0.12621922  0.43736549  0.52420484     0.15000
C901        C  0.95744635  0.62630220  0.53591098    -0.17900
C902        C  0.93736574  0.64587848  0.54791289    -0.20100
C903        C  0.90793349  0.63140386  0.55615038     0.20600
C904        C  0.89860411  0.59686105  0.55224095    -0.03000
C905        C  0.91894713  0.57704108  0.54019136    -0.06000
C906        C  0.94850414  0.59188173  0.53198575     0.20900
C907        C  0.90973981  0.54238383  0.53638980     0.19000
C908        C  0.88031483  0.52792609  0.54460837    -0.17500
C909        C  0.86012570  0.54760081  0.55651178    -0.19700
C910        C  0.86902994  0.58206630  0.56040923     0.20500
C911        C  0.84899315  0.60188776  0.57241384    -0.32800
C912        C  0.85824539  0.63629296  0.57653282     0.01200
C913        C  0.88779805  0.65081841  0.56829027    -0.24100
C914        C  0.96858894  0.57200074  0.52004380    -0.28700
C915        C  0.95952021  0.53752775  0.51630567     0.06900
C916        C  0.93015078  0.52282386  0.52446461    -0.27300
H917        H  0.98003758  0.63806889  0.52972898     0.11600
H918        H  0.94488077  0.67236864  0.55076478     0.12700
H919        H  0.87291248  0.50137338  0.54183375     0.11800
H920        H  0.83754356  0.53582581  0.56269746     0.11100
H921        H  0.82651586  0.59024774  0.57878307     0.16400
H922        H  0.89522744  0.67726721  0.57133274     0.12400
H923        H  0.99132137  0.58315461  0.51367057     0.15200
H924        H  0.92330765  0.49618749  0.52146899     0.15000
C925        C  0.13116413  0.62462248  0.88511808    -0.17900
C926        C  0.11100983  0.60589321  0.89741561    -0.20100
C927        C  0.12562372  0.57866639  0.90735802     0.20600
C928        C  0.16109423  0.57067388  0.90520958    -0.03000
C929        C  0.18138958  0.58947136  0.89271782    -0.06000
C930        C  0.16621685  0.61634313  0.88254547     0.20900
C931        C  0.21664004  0.58097827  0.89018087     0.19000
C932        C  0.23150472  0.55449976  0.90060734    -0.17500
C933        C  0.21145336  0.53603667  0.91312422    -0.19700
C934        C  0.17614488  0.54358692  0.91533744     0.20500
C935        C  0.15549015  0.52436570  0.92733237    -0.32800
C936        C  0.12006977  0.53182041  0.92912460     0.01200
C937        C  0.10532949  0.55908818  0.91928402    -0.24100
C938        C  0.18614425  0.63410779  0.86973262    -0.28700
C939        C  0.22104123  0.62518510  0.86667526     0.06900
C940        C  0.23620851  0.59874614  0.87708375    -0.27300
H941        H  0.11921320  0.64531300  0.87744161     0.11600
H942        H  0.08390018  0.61247808  0.89901828     0.12700
H943        H  0.25857573  0.54782408  0.89894989     0.11800
H944        H  0.22345603  0.51550802  0.92089206     0.11100
H945        H  0.16674239  0.50353990  0.93520999     0.16400
H946        H  0.07806090  0.56498207  0.92099625     0.12400
H947        H  0.17405413  0.65436183  0.86179269     0.15200
H948        H  0.26311894  0.59187716  0.87493646     0.15000
C949        C  0.88437420  0.39008136  0.88387877    -0.17900
C950        C  0.90373462  0.41070352  0.89571460    -0.20100
C951        C  0.93669265  0.40008578  0.90145620     0.20600
C952        C  0.95047376  0.36853053  0.89502114    -0.03000
C953        C  0.93087163  0.34766576  0.88306600    -0.06000
C954        C  0.89761277  0.35845047  0.87755403     0.20900
C955        C  0.94437773  0.31586937  0.87682145     0.19000
C956        C  0.97757008  0.30550571  0.88235340    -0.17500
C957        C  0.99694023  0.32610066  0.89423739    -0.19700
C958        C  0.98350786  0.35748013  0.90081788     0.20500
C959        C  0.00197969  0.37746608  0.91350010    -0.32800
C960        C  0.98783787  0.40836667  0.92039296     0.01200
C961        C  0.95563234  0.41995322  0.91392734    -0.24100
C962        C  0.87811055  0.33743249  0.86586584    -0.28700
C963        C  0.89125091  0.30555754  0.85958326     0.06900
C964        C  0.92447732  0.29499042  0.86519946    -0.27300
H965        H  0.85890370  0.39878643  0.87976283     0.11600
H966        H  0.89274743  0.43481996  0.90054008     0.12700
H967        H  0.98844933  0.28127411  0.87761539     0.11800
H968        H  0.02228944  0.31725220  0.89846269     0.11100
H969        H  0.02679311  0.36850504  0.91848787     0.16400
H970        H  0.94472227  0.44372508  0.91927214     0.12400
H971        H  0.85260358  0.34596789  0.86169584     0.15200
H972        H  0.93507390  0.27067114  0.86039711     0.15000
C973        C  0.61663650  0.11301196  0.55440325    -0.17900
C974        C  0.59863192  0.09701407  0.54030117    -0.20100
C975        C  0.60658849  0.06293595  0.53520971     0.20600
C976        C  0.63305733  0.04480879  0.54437223    -0.03000
C977        C  0.65096397  0.06083437  0.55874634    -0.06000
C978        C  0.64268235  0.09508396  0.56373689     0.20900
C979        C  0.67704711  0.04258494  0.56812945     0.19000
C980        C  0.68503239  0.00850265  0.56298731    -0.17500
C981        C  0.66753574  0.99272583  0.54860379    -0.19700
C982        C  0.64157593  0.01066434  0.53920723     0.20500
C983        C  0.62385225  0.99504888  0.52480421    -0.32800
C984        C  0.59702767  0.01274496  0.51591027     0.01200
C985        C  0.58847137  0.04661308  0.52117358    -0.24100
C986        C  0.66042080  0.11082797  0.57803407    -0.28700
C987        C  0.68633245  0.09286186  0.58759236     0.06900
C988        C  0.69457603  0.05870400  0.58249932    -0.27300
H989        H  0.61004173  0.13937014  0.55808536     0.11600
H990        H  0.57848406  0.11130683  0.53336955     0.12700
H991        H  0.70489618  0.99406751  0.57005903     0.11800
H992        H  0.67424358  0.96643222  0.54485976     0.11100
H993        H  0.63035063  0.96889022  0.52067800     0.16400
H994        H  0.56775244  0.06015613  0.51426532     0.12400
H995        H  0.65385465  0.13719699  0.58172390     0.15200
H996        H  0.71439119  0.04455810  0.58977664     0.15000
C997        C  0.38074621  0.88678805  0.55974062    -0.17900
C998        C  0.39640728  0.90296114  0.54492843    -0.20100
C999        C  0.42422443  0.88705250  0.53599368     0.20600
C1000       C  0.43656483  0.85463090  0.54203329    -0.03000
C1001       C  0.42091222  0.83846226  0.55700388    -0.06000
C1002       C  0.39275403  0.85452625  0.56582848     0.20900
C1003       C  0.43340067  0.80618549  0.56310050     0.19000
C1004       C  0.46151338  0.79048430  0.55430318    -0.17500
C1005       C  0.47703026  0.80648955  0.53942421    -0.19700
C1006       C  0.46469577  0.83844892  0.53318350     0.20500
C1007       C  0.48036837  0.85484765  0.51845361    -0.32800
C1008       C  0.46847134  0.88725680  0.51273120     0.01200
C1009       C  0.44035733  0.90320548  0.52131986    -0.24100
C1010       C  0.37691154  0.83788662  0.58048464    -0.28700
C1011       C  0.38884771  0.80537578  0.58642803     0.06900
C1012       C  0.41737371  0.78994405  0.57778266    -0.27300
H1013       H  0.35920446  0.89947232  0.56641465     0.11600
H1014       H  0.38678225  0.92789591  0.54046367     0.12700
H1015       H  0.47140686  0.76574084  0.55888872     0.11800
H1016       H  0.49870609  0.79390636  0.53281619     0.11100
H1017       H  0.50244529  0.84309213  0.51176206     0.16400
H1018       H  0.43172812  0.92849135  0.51679559     0.12400
H1019       H  0.35509793  0.85017747  0.58713028     0.15200
H1020       H  0.42694312  0.76502365  0.58230780     0.15000
C1021       C  0.46295248  0.13414035  0.05878761    -0.17900
C1022       C  0.48172803  0.11434935  0.04630796    -0.20100
C1023       C  0.47252701  0.07980129  0.04286540     0.20600
C1024       C  0.44431599  0.06489690  0.05223895    -0.03000
C1025       C  0.42517282  0.08499358  0.06473836    -0.06000
C1026       C  0.43450117  0.11980382  0.06797539     0.20900
C1027       C  0.39654980  0.07035080  0.07385549     0.19000
C1028       C  0.38781105  0.03555423  0.07069694    -0.17500
C1029       C  0.40686742  0.01558781  0.05838413    -0.19700
C1030       C  0.43497817  0.03006462  0.04896861     0.20500
C1031       C  0.45365016  0.01054409  0.03618695    -0.32800
C1032       C  0.48131580  0.02554820  0.02660910     0.01200
C1033       C  0.49076701  0.06003767  0.03007135    -0.24100
C1034       C  0.41511108  0.13974538  0.08023838    -0.28700
C1035       C  0.38611451  0.12558173  0.08915737     0.06900
C1036       C  0.37708799  0.09077520  0.08589186    -0.27300
H1037       H  0.47052255  0.16079407  0.06114114     0.11600
H1038       H  0.50337205  0.12613952  0.03927226     0.12700
H1039       H  0.36606194  0.02382052  0.07767043     0.11800
H1040       H  0.39940833  0.98888113  0.05610350     0.11100
H1041       H  0.44640276  0.98392616  0.03342874     0.16400
H1042       H  0.51212440  0.07147322  0.02262713     0.12400
H1043       H  0.42236694  0.16647952  0.08266048     0.15200
H1044       H  0.35513615  0.07941707  0.09287443     0.15000
C1045       C  0.42674054  0.30388682  0.12639204    -0.17900
C1046       C  0.43927806  0.33176631  0.13652785    -0.20100
C1047       C  0.43592035  0.33199043  0.15543316     0.20600
C1048       C  0.41928570  0.30415862  0.16424248    -0.03000
C1049       C  0.40607304  0.27634622  0.15398917    -0.06000
C1050       C  0.41025206  0.27598325  0.13497602     0.20900
C1051       C  0.38887248  0.24884187  0.16276603     0.19000
C1052       C  0.38526545  0.24916280  0.18166851    -0.17500
C1053       C  0.39913240  0.27633407  0.19187272    -0.19700
C1054       C  0.41631455  0.30386856  0.18329895     0.20500
C1055       C  0.43113896  0.33080540  0.19341899    -0.32800
C1056       C  0.44800294  0.35838140  0.18467645     0.01200
C1057       C  0.44965908  0.35917922  0.16569660    -0.24100
C1058       C  0.39764608  0.24786199  0.12489438    -0.28700
C1059       C  0.37996843  0.22085413  0.13357863     0.06900
C1060       C  0.37553390  0.22153967  0.15246468    -0.27300
H1061       H  0.42994749  0.30415187  0.11182871     0.11600
H1062       H  0.45202400  0.35297403  0.12959038     0.12700
H1063       H  0.37204283  0.22820421  0.18857519     0.11800
H1064       H  0.39648404  0.27577909  0.20646694     0.11100
H1065       H  0.42984093  0.33023599  0.20807428     0.16400
H1066       H  0.46304205  0.38016182  0.15890159     0.12400
H1067       H  0.40052264  0.24749242  0.11030181     0.15200
H1068       H  0.36178217  0.20060452  0.15913956     0.15000
C1069       C  0.11226105  0.29269293  0.39477232    -0.17900
C1070       C  0.09174128  0.31194979  0.40666026    -0.20100
C1071       C  0.10440781  0.34278552  0.41418708     0.20600
C1072       C  0.13832046  0.35403837  0.40998806    -0.03000
C1073       C  0.15891380  0.33472031  0.39793394    -0.06000
C1074       C  0.14566388  0.30409770  0.39019057     0.20900
C1075       C  0.19242375  0.34647335  0.39332144     0.19000
C1076       C  0.20539049  0.37689007  0.40119095    -0.17500
C1077       C  0.18507908  0.39592072  0.41328122    -0.19700
C1078       C  0.15144824  0.38491017  0.41759019     0.20500
C1079       C  0.13054224  0.40440252  0.42920605    -0.32800
C1080       C  0.09670029  0.39357147  0.43307688     0.01200
C1081       C  0.08371264  0.36277807  0.42570444    -0.24100
C1082       C  0.16560326  0.28595564  0.37756851    -0.28700
C1083       C  0.19841176  0.29831704  0.37226599     0.06900
C1084       C  0.21197954  0.32817167  0.38053101    -0.27300
H1085       H  0.10180037  0.26916350  0.38893398     0.11600
H1086       H  0.06585455  0.30291307  0.40982784     0.12700
H1087       H  0.23109220  0.38618611  0.39782719     0.11800
H1088       H  0.19549728  0.41950615  0.41907443     0.11100
H1089       H  0.14031427  0.42814982  0.43515554     0.16400
H1090       H  0.05758740  0.35454224  0.42898442     0.12400
H1091       H  0.15489168  0.26284060  0.37140372     0.15200
H1092       H  0.23729204  0.33780720  0.37663555     0.15000
C1093       C  0.35065924  0.28154124  0.28760068    -0.17900
C1094       C  0.37856023  0.29710819  0.27873336    -0.20100
C1095       C  0.39271966  0.32808878  0.28530639     0.20600
C1096       C  0.37870112  0.34356076  0.30100025    -0.03000
C1097       C  0.35050065  0.32782775  0.30996109    -0.06000
C1098       C  0.33648457  0.29671457  0.30317909     0.20900
C1099       C  0.33618064  0.34333228  0.32557406     0.19000
C1100       C  0.35034849  0.37441155  0.33210654    -0.17500
C1101       C  0.37838190  0.39001272  0.32322623    -0.19700
C1102       C  0.39269117  0.37481757  0.30765024     0.20500
C1103       C  0.42059042  0.39035491  0.29853202    -0.32800
C1104       C  0.43459360  0.37503959  0.28284608     0.01200
C1105       C  0.42053443  0.34389409  0.27636793    -0.24100
C1106       C  0.30826085  0.28141507  0.31192979    -0.28700
C1107       C  0.29341482  0.29678228  0.32736784     0.06900
C1108       C  0.30773423  0.32768036  0.33421329    -0.27300
H1109       H  0.34006494  0.25767090  0.28222503     0.11600
H1110       H  0.38900709  0.28495703  0.26669079     0.12700
H1111       H  0.33967153  0.38672343  0.34404896     0.11800
H1112       H  0.38879575  0.41403835  0.32850629     0.11100
H1113       H  0.43129627  0.41442812  0.30361108     0.16400
H1114       H  0.43106591  0.33189437  0.26431869     0.12400
H1115       H  0.29759919  0.25762338  0.30648480     0.15200
H1116       H  0.29647217  0.33984856  0.34605488     0.15000
C1117       C  0.68004938  0.02242220  0.40003019    -0.17900
C1118       C  0.70010341  0.04376760  0.38890965    -0.20100
C1119       C  0.68703034  0.07559427  0.38281065     0.20600
C1120       C  0.65338567  0.08602754  0.38787968    -0.03000
C1121       C  0.63308052  0.06443521  0.39902713    -0.06000
C1122       C  0.64659695  0.03254686  0.40517540     0.20900
C1123       C  0.59944439  0.07491903  0.40417987     0.19000
C1124       C  0.58638682  0.10673019  0.39807481    -0.17500
C1125       C  0.60654670  0.12813433  0.38699981    -0.19700
C1126       C  0.64008202  0.11806136  0.38187077     0.20500
C1127       C  0.66047934  0.13937278  0.37077522    -0.32800
C1128       C  0.69394608  0.12897405  0.36549994     0.01200
C1129       C  0.70702130  0.09707858  0.37167503    -0.24100
C1130       C  0.62664011  0.01165810  0.41661651    -0.28700
C1131       C  0.59348316  0.02231171  0.42192184     0.06900
C1132       C  0.57976897  0.05365239  0.41560002    -0.27300
H1133       H  0.69075213  0.99804935  0.40466215     0.11600
H1134       H  0.72589851  0.03542059  0.38511329     0.12700
H1135       H  0.56064172  0.11512994  0.40193515     0.11800
H1136       H  0.59593298  0.15261675  0.38247466     0.11100
H1137       H  0.65003053  0.16378678  0.36603378     0.16400
H1138       H  0.73278171  0.08878988  0.36776059     0.12400
H1139       H  0.63703720  0.98750530  0.42176296     0.15200
H1140       H  0.55420774  0.06174360  0.41998471     0.15000
C1141       C  0.62802275  0.33173718  0.32867005    -0.17900
C1142       C  0.64125818  0.30200309  0.33705924    -0.20100
C1143       C  0.66986019  0.28458260  0.32963396     0.20600
C1144       C  0.68604575  0.29812737  0.31399284    -0.03000
C1145       C  0.67259913  0.32786932  0.30547257    -0.06000
C1146       C  0.64304858  0.34441556  0.31265716     0.20900
C1147       C  0.68770715  0.33995500  0.28922539     0.19000
C1148       C  0.71711895  0.32352957  0.28219376    -0.17500
C1149       C  0.73067885  0.29438415  0.29075134    -0.19700
C1150       C  0.71486950  0.28116268  0.30638919     0.20500
C1151       C  0.72683252  0.25056216  0.31413787    -0.32800
C1152       C  0.71016259  0.23588136  0.32926726     0.01200
C1153       C  0.68195977  0.25336237  0.33717609    -0.24100
C1154       C  0.62795254  0.37196136  0.30308124    -0.28700
C1155       C  0.64154549  0.38208350  0.28622128     0.06900
C1156       C  0.67195730  0.36689837  0.27969143    -0.27300
H1157       H  0.60539343  0.34420030  0.33440463     0.11600
H1158       H  0.62865228  0.29220548  0.34912733     0.12700
H1159       H  0.72907504  0.33266159  0.26980556     0.11800
H1160       H  0.75297439  0.28159999  0.28484692     0.11100
H1161       H  0.74864728  0.23759253  0.30785928     0.16400
H1162       H  0.66908990  0.24242521  0.34890280     0.12400
H1163       H  0.60416972  0.38358663  0.30798869     0.15200
H1164       H  0.68224952  0.37486358  0.26667378     0.15000
C1165       C  0.08715776  0.60735763  0.07538954    -0.17900
C1166       C  0.07320371  0.59306455  0.05960543    -0.20100
C1167       C  0.09283214  0.57024379  0.04895071     0.20600
C1168       C  0.12701331  0.56198285  0.05415189    -0.03000
C1169       C  0.14096245  0.57613462  0.07018765    -0.06000
C1170       C  0.12090508  0.59890732  0.08085074     0.20900
C1171       C  0.17482762  0.56724227  0.07562084     0.19000
C1172       C  0.19467352  0.54486758  0.06481123    -0.17500
C1173       C  0.18095627  0.53104874  0.04885025    -0.19700
C1174       C  0.14708859  0.53921316  0.04347208     0.20500
C1175       C  0.13270284  0.52455065  0.02780135    -0.32800
C1176       C  0.09843330  0.53208850  0.02283402     0.01200
C1177       C  0.07872149  0.55510269  0.03335496    -0.24100
C1178       C  0.13485308  0.61268231  0.09682676    -0.28700
C1179       C  0.16843182  0.60360690  0.10245774     0.06900
C1180       C  0.18821698  0.58078992  0.09177913    -0.27300
H1181       H  0.07143424  0.62482681  0.08340974     0.11600
H1182       H  0.04696699  0.59973191  0.05577613     0.12700
H1183       H  0.22078314  0.53792216  0.06874557     0.11800
H1184       H  0.19673037  0.51367826  0.04080128     0.11100
H1185       H  0.14772830  0.50660120  0.01969061     0.16400
H1186       H  0.05224756  0.56074592  0.02947865     0.12400
H1187       H  0.11936465  0.63011858  0.10500467     0.15200
H1188       H  0.21423506  0.57388189  0.09592006     0.15000
C1189       C  0.35471891  0.52391338  0.15005313    -0.17900
C1190       C  0.32335590  0.53505953  0.14257252    -0.20100
C1191       C  0.30336123  0.56035775  0.15136452     0.20600
C1192       C  0.31470711  0.57396281  0.16806224    -0.03000
C1193       C  0.34628779  0.56276817  0.17558525    -0.06000
C1194       C  0.36658144  0.53787785  0.16645114     0.20900
C1195       C  0.35780306  0.57695093  0.19210724     0.19000
C1196       C  0.33743990  0.60150506  0.20117567    -0.17500
C1197       C  0.30619428  0.61261506  0.19371566    -0.19700
C1198       C  0.29487606  0.59931991  0.17708521     0.20500
C1199       C  0.26450302  0.61166256  0.16912995    -0.32800
C1200       C  0.25359871  0.59927975  0.15216425     0.01200
C1201       C  0.27274128  0.57298268  0.14354966    -0.24100
C1202       C  0.39852763  0.52778487  0.17378794    -0.28700
C1203       C  0.41036196  0.54244484  0.19006583     0.06900
C1204       C  0.38967964  0.56670217  0.19920937    -0.27300
H1205       H  0.36988979  0.50466130  0.14290666     0.11600
H1206       H  0.31497221  0.52423645  0.12978217     0.12700
H1207       H  0.34589235  0.61243985  0.21393296     0.11800
H1208       H  0.29111729  0.63198847  0.20082911     0.11100
H1209       H  0.24977736  0.63159718  0.17603130     0.16400
H1210       H  0.26450818  0.56316369  0.13050846     0.12400
H1211       H  0.41433798  0.50891102  0.16672767     0.15200
H1212       H  0.39828763  0.57782500  0.21187224     0.15000
C1213       C  0.19870083  0.14866689  0.17650600    -0.17900
C1214       C  0.22697328  0.16289592  0.16734816    -0.20100
C1215       C  0.23802995  0.14873951  0.15083509     0.20600
C1216       C  0.21969873  0.12099486  0.14302801    -0.03000
C1217       C  0.19065995  0.10712427  0.15208024    -0.06000
C1218       C  0.18074220  0.12045086  0.16913130     0.20900
C1219       C  0.17244961  0.07904113  0.14443758     0.19000
C1220       C  0.18306613  0.06552924  0.12768575    -0.17500
C1221       C  0.21228730  0.07890558  0.11886762    -0.19700
C1222       C  0.23115059  0.10627245  0.12655928     0.20500
C1223       C  0.26191263  0.11833961  0.11847976    -0.32800
C1224       C  0.28098070  0.14518605  0.12662391     0.01200
C1225       C  0.26800341  0.16098334  0.14244001    -0.24100
C1226       C  0.15393501  0.10446709  0.17881453    -0.28700
C1227       C  0.13639513  0.07597313  0.17146828     0.06900
C1228       C  0.14491664  0.06405424  0.15405680    -0.27300
H1229       H  0.19126842  0.15933043  0.18950478     0.11600
H1230       H  0.24084310  0.18432136  0.17345215     0.12700
H1231       H  0.16931477  0.04398245  0.12163420     0.11800
H1232       H  0.22049865  0.06741584  0.10619546     0.11100
H1233       H  0.27140907  0.10629302  0.10619165     0.16400
H1234       H  0.28212491  0.18190012  0.14886112     0.12400
H1235       H  0.14724171  0.11357483  0.19225424     0.15200
H1236       H  0.13156243  0.04175929  0.14849578     0.15000
C1237       C  0.20734327  0.16692628  0.27932705    -0.17900
C1238       C  0.18891814  0.14359951  0.26858218    -0.20100
C1239       C  0.15654385  0.13117485  0.27425276     0.20600
C1240       C  0.14219625  0.14288240  0.29072696    -0.03000
C1241       C  0.16082703  0.16637027  0.30159034    -0.06000
C1242       C  0.19364281  0.17820782  0.29588746     0.20900
C1243       C  0.14676755  0.17777373  0.31818475     0.19000
C1244       C  0.11400129  0.16593409  0.32365435    -0.17500
C1245       C  0.09551579  0.14258333  0.31287828    -0.19700
C1246       C  0.10955487  0.13065240  0.29648990     0.20500
C1247       C  0.09205895  0.10592910  0.28602963    -0.32800
C1248       C  0.10705234  0.09297009  0.27003202     0.01200
C1249       C  0.13879534  0.10645122  0.26398708    -0.24100
C1250       C  0.21213312  0.20136249  0.30673852    -0.28700
C1251       C  0.19819421  0.21326700  0.32318174     0.06900
C1252       C  0.16559238  0.20104533  0.32891261    -0.27300
H1253       H  0.23242512  0.17599296  0.27473085     0.11600
H1254       H  0.20019126  0.13493733  0.25593522     0.12700
H1255       H  0.10275030  0.17459318  0.33630946     0.11800
H1256       H  0.07042871  0.13352337  0.31747010     0.11100
H1257       H  0.06739679  0.09601351  0.29072264     0.16400
H1258       H  0.15029313  0.09685518  0.25157096     0.12400
H1259       H  0.23716463  0.21059967  0.30214417     0.15200
H1260       H  0.15452319  0.21008055  0.34154529     0.15000
C1261       C  0.86842030  0.08533024  0.32724176    -0.17900
C1262       C  0.89499017  0.07157652  0.31652378    -0.20100
C1263       C  0.89565115  0.07762542  0.29778797     0.20600
C1264       C  0.86989844  0.09848763  0.28982433    -0.03000
C1265       C  0.84351466  0.11283586  0.30066462    -0.06000
C1266       C  0.84234711  0.10571183  0.31942650     0.20900
C1267       C  0.81795362  0.13382162  0.29264202     0.19000
C1268       C  0.81894982  0.14047411  0.27399607    -0.17500
C1269       C  0.84468485  0.12569108  0.26320570    -0.19700
C1270       C  0.87002054  0.10439098  0.27094872     0.20500
C1271       C  0.89494138  0.08821116  0.26008300    -0.32800
C1272       C  0.92012187  0.06684277  0.26788701     0.01200
C1273       C  0.92097988  0.06238749  0.28677787    -0.24100
C1274       C  0.81503226  0.11898381  0.32994239    -0.28700
C1275       C  0.78974240  0.14005887  0.32191814     0.06900
C1276       C  0.79156126  0.14755094  0.30334863    -0.27300
H1277       H  0.86813919  0.07983786  0.34161635     0.11600
H1278       H  0.91466463  0.05566071  0.32283581     0.12700
H1279       H  0.79948032  0.15667942  0.26770899     0.11800
H1280       H  0.84457737  0.13064601  0.24877686     0.11100
H1281       H  0.89455583  0.09193082  0.24554487     0.16400
H1282       H  0.94042417  0.04580699  0.29283260     0.12400
H1283       H  0.81375092  0.11351640  0.34431525     0.15200
H1284       H  0.77188653  0.16365112  0.29712474     0.15000
C1285       C  0.18948216  0.75420485  0.18793092    -0.17900
C1286       C  0.18047486  0.78723042  0.19413237    -0.20100
C1287       C  0.15788377  0.80813803  0.18407497     0.20600
C1288       C  0.14431412  0.79562787  0.16757214    -0.03000
C1289       C  0.15341902  0.76233363  0.16131263    -0.06000
C1290       C  0.17608564  0.74156658  0.17156002     0.20900
C1291       C  0.13986589  0.74987550  0.14480597     0.19000
C1292       C  0.11735947  0.77081535  0.13471761    -0.17500
C1293       C  0.10822165  0.80375237  0.14095239    -0.19700
C1294       C  0.12151564  0.81630551  0.15735039     0.20500
C1295       C  0.11212104  0.84905989  0.16377143    -0.32800
C1296       C  0.12515335  0.86157211  0.18028489     0.01200
C1297       C  0.14830914  0.84113882  0.19030671    -0.24100
C1298       C  0.18521896  0.70863983  0.16519696    -0.28700
C1299       C  0.17219208  0.69610805  0.14863624     0.06900
C1300       C  0.14926441  0.71684291  0.13859915    -0.27300
H1301       H  0.20697352  0.73854114  0.19593969     0.11600
H1302       H  0.19110053  0.79637636  0.20682515     0.12700
H1303       H  0.10678660  0.76170274  0.12200781     0.11800
H1304       H  0.09068676  0.81939833  0.13295862     0.11100
H1305       H  0.09429504  0.86471191  0.15594333     0.16400
H1306       H  0.15836751  0.85053986  0.20307003     0.12400
H1307       H  0.20283748  0.69293455  0.17311540     0.15200
H1308       H  0.13916449  0.70757719  0.12580822     0.15000
C1309       C  0.94914717  0.32381416  0.03115800    -0.17900
C1310       C  0.93256203  0.30716552  0.04556043    -0.20100
C1311       C  0.91447631  0.32643906  0.05859896     0.20600
C1312       C  0.91276486  0.36284238  0.05703555    -0.03000
C1313       C  0.92956836  0.37965179  0.04252832    -0.06000
C1314       C  0.94794957  0.35999536  0.02957772     0.20900
C1315       C  0.92850832  0.41611683  0.04117289     0.19000
C1316       C  0.91059789  0.43540606  0.05427934    -0.17500
C1317       C  0.89374688  0.41871301  0.06860298    -0.19700
C1318       C  0.89466295  0.38248049  0.07008868     0.20500
C1319       C  0.87818198  0.36556979  0.08451466    -0.32800
C1320       C  0.88026084  0.32937608  0.08628994     0.01200
C1321       C  0.89841038  0.30997841  0.07327959    -0.24100
C1322       C  0.96557417  0.37690769  0.01555198    -0.28700
C1323       C  0.96504719  0.41316721  0.01430904     0.06900
C1324       C  0.94607483  0.43263384  0.02697588    -0.27300
H1325       H  0.96319593  0.30840244  0.02133914     0.11600
H1326       H  0.93407733  0.27920558  0.04656869     0.12700
H1327       H  0.90974940  0.46342264  0.05349552     0.11800
H1328       H  0.88015449  0.43416092  0.07858162     0.11100
H1329       H  0.86449194  0.38065337  0.09462195     0.16400
H1330       H  0.89992749  0.28203694  0.07455930     0.12400
H1331       H  0.98069419  0.36204686  0.00592029     0.15200
H1332       H  0.94609512  0.46067538  0.02607418     0.15000
C1333       C  0.87833710  0.14648002  0.17812289    -0.17900
C1334       C  0.86414791  0.17615162  0.17030168    -0.20100
C1335       C  0.87981354  0.19132656  0.15509930     0.20600
C1336       C  0.91036566  0.17698760  0.14785623    -0.03000
C1337       C  0.92476189  0.14717632  0.15579595    -0.06000
C1338       C  0.90844746  0.13166414  0.17088476     0.20900
C1339       C  0.95522458  0.13268537  0.14851249     0.19000
C1340       C  0.97130174  0.14830837  0.13354924    -0.17500
C1341       C  0.95692054  0.17783167  0.12562290    -0.19700
C1342       C  0.92632713  0.19221014  0.13258639     0.20500
C1343       C  0.91132268  0.22142396  0.12451802    -0.32800
C1344       C  0.88067057  0.23565225  0.13160174     0.01200
C1345       C  0.86525334  0.22048203  0.14696209    -0.24100
C1346       C  0.92234868  0.10144275  0.17836558    -0.28700
C1347       C  0.95238027  0.08666581  0.17099399     0.06900
C1348       C  0.96886961  0.10259013  0.15618802    -0.27300
H1349       H  0.86563569  0.13498876  0.18975096     0.11600
H1350       H  0.84073424  0.18706344  0.17604551     0.12700
H1351       H  0.99482555  0.13750152  0.12787279     0.11800
H1352       H  0.96960221  0.18928875  0.11398183     0.11100
H1353       H  0.92353730  0.23304728  0.11277954     0.16400
H1354       H  0.84171349  0.23124687  0.15264947     0.12400
H1355       H  0.90971784  0.08936660  0.18986350     0.15200
H1356       H  0.99212108  0.09150089  0.15041379     0.15000
C1357       C  0.72794893  0.29718198  0.16954885    -0.17900
C1358       C  0.70059976  0.31108330  0.17959149    -0.20100
C1359       C  0.69039238  0.34557992  0.17699818     0.20600
C1360       C  0.70774760  0.36620151  0.16403724    -0.03000
C1361       C  0.73542730  0.35222647  0.15396048    -0.06000
C1362       C  0.74556922  0.31760300  0.15679963     0.20900
C1363       C  0.75303098  0.37293306  0.14113192     0.19000
C1364       C  0.74262528  0.40734327  0.13842637    -0.17500
C1365       C  0.71502184  0.42114737  0.14833751    -0.19700
C1366       C  0.69751155  0.40080284  0.16117388     0.20500
C1367       C  0.66990082  0.41444273  0.17117664    -0.32800
C1368       C  0.65249433  0.39406524  0.18410170     0.01200
C1369       C  0.66303709  0.35976051  0.18706142    -0.24100
C1370       C  0.77337198  0.30404894  0.14697188    -0.28700
C1371       C  0.79141035  0.32460534  0.13434031     0.06900
C1372       C  0.78088884  0.35895924  0.13136399    -0.27300
H1373       H  0.73545511  0.27049405  0.17182774     0.11600
H1374       H  0.68746225  0.29486562  0.18940775     0.12700
H1375       H  0.75585074  0.42359147  0.12865439     0.11800
H1376       H  0.70741616  0.44778407  0.14599538     0.11100
H1377       H  0.66212513  0.44105010  0.16892536     0.16400
H1378       H  0.64952005  0.34392646  0.19692060     0.12400
H1379       H  0.78107561  0.27741560  0.14928965     0.15200
H1380       H  0.79472051  0.37499746  0.12171702     0.15000
C1381       C  0.37779560  0.90159321  0.39796725    -0.17900
C1382       C  0.35512022  0.88165166  0.38751912    -0.20100
C1383       C  0.36475520  0.84844479  0.38165518     0.20600
C1384       C  0.39753962  0.83514114  0.38641209    -0.03000
C1385       C  0.42044733  0.85526318  0.39694923    -0.06000
C1386       C  0.41048025  0.88865917  0.40274251     0.20900
C1387       C  0.45309483  0.84177983  0.40189068     0.19000
C1388       C  0.46263291  0.80849623  0.39611272    -0.17500
C1389       C  0.44003544  0.78867952  0.38554943    -0.19700
C1390       C  0.40744040  0.80173862  0.38066549     0.20500
C1391       C  0.38475007  0.78210032  0.36999041    -0.32800
C1392       C  0.35224373  0.79541046  0.36485821     0.01200
C1393       C  0.34232944  0.82850532  0.37095823    -0.24100
C1394       C  0.43298238  0.90811324  0.41362231    -0.28700
C1395       C  0.46502960  0.89439759  0.41896233     0.06900
C1396       C  0.47518891  0.86146432  0.41291158    -0.27300
H1397       H  0.36969605  0.92709844  0.40238677     0.11600
H1398       H  0.33003293  0.89223452  0.38400406     0.12700
H1399       H  0.48754160  0.79773405  0.39981643     0.11800
H1400       H  0.44803428  0.76307755  0.38122853     0.11100
H1401       H  0.39281345  0.75669352  0.36538421     0.16400
H1402       H  0.31737031  0.83905572  0.36715839     0.12400
H1403       H  0.42504005  0.93328211  0.41864404     0.15200
H1404       H  0.49970445  0.85078855  0.41736141     0.15000
C1405       C  0.19268665  0.86499542  0.32924960    -0.17900
C1406       C  0.16668099  0.88244203  0.31977553    -0.20100
C1407       C  0.15782578  0.87220879  0.30216810     0.20600
C1408       C  0.17482373  0.84371777  0.29412505    -0.03000
C1409       C  0.20058059  0.82578716  0.30379288    -0.06000
C1410       C  0.20993514  0.83680333  0.32133809     0.20900
C1411       C  0.21745633  0.79729468  0.29574326     0.19000
C1412       C  0.20838912  0.78683994  0.27819348    -0.17500
C1413       C  0.18335498  0.80505444  0.26846220    -0.19700
C1414       C  0.16672538  0.83368292  0.27624078     0.20500
C1415       C  0.14283711  0.85305089  0.26629461    -0.32800
C1416       C  0.12627647  0.88148274  0.27421855     0.01200
C1417       C  0.13306275  0.89056227  0.29222758    -0.24100
C1418       C  0.23669494  0.81973765  0.33053833    -0.28700
C1419       C  0.25374448  0.79145550  0.32252739     0.06900
C1420       C  0.24360315  0.78013217  0.30522953    -0.27300
H1421       H  0.19947238  0.87369692  0.34272220     0.11600
H1422       H  0.15390824  0.90431057  0.32610012     0.12700
H1423       H  0.22111135  0.76494051  0.27187153     0.11800
H1424       H  0.17724142  0.79696356  0.25479437     0.11100
H1425       H  0.13738687  0.84636830  0.25232869     0.16400
H1426       H  0.12039842  0.91294873  0.29813504     0.12400
H1427       H  0.24425681  0.82846404  0.34390153     0.15200
H1428       H  0.25675825  0.75851304  0.29886766     0.15000
C1429       C  0.38980571  0.61917462  0.33811809    -0.17900
C1430       C  0.40778182  0.59221132  0.32961131    -0.20100
C1431       C  0.40658564  0.58844621  0.31073081     0.20600
C1432       C  0.38612114  0.61137447  0.30038704    -0.03000
C1433       C  0.36751913  0.63811115  0.30898632    -0.06000
C1434       C  0.37002551  0.64254436  0.32790075     0.20900
C1435       C  0.34748533  0.66121198  0.29855175     0.19000
C1436       C  0.34593313  0.65729673  0.27971103    -0.17500
C1437       C  0.36490356  0.63124951  0.27116131    -0.19700
C1438       C  0.38528438  0.60845917  0.28136223     0.20500
C1439       C  0.40588119  0.58368117  0.27278867    -0.32800
C1440       C  0.42711400  0.56156752  0.28292475     0.01200
C1441       C  0.42661888  0.56320599  0.30191270    -0.24100
C1442       C  0.35376631  0.67100846  0.33611618    -0.28700
C1443       C  0.33450592  0.69448690  0.32566328     0.06900
C1444       C  0.33053181  0.68875839  0.30702038    -0.27300
H1445       H  0.39184689  0.62210117  0.35265597     0.11600
H1446       H  0.42333938  0.57485067  0.33775344     0.12700
H1447       H  0.33073558  0.67493396  0.27154186     0.11800
H1448       H  0.36404165  0.62924608  0.25654372     0.11100
H1449       H  0.40624947  0.58228345  0.25812933     0.16400
H1450       H  0.44331490  0.54635914  0.30973479     0.12400
H1451       H  0.35666326  0.67534140  0.35052745     0.15200
H1452       H  0.31593601  0.70698756  0.29888326     0.15000
C1453       C  0.72499961  0.86584899  0.04925404    -0.17900
C1454       C  0.70607830  0.88648097  0.03724306    -0.20100
C1455       C  0.66974600  0.88532165  0.03721349     0.20600
C1456       C  0.65227599  0.86331203  0.04946452    -0.03000
C1457       C  0.67133916  0.84240669  0.06148278    -0.06000
C1458       C  0.70788251  0.84364459  0.06137757     0.20900
C1459       C  0.65378469  0.82003753  0.07348889     0.19000
C1460       C  0.61747546  0.81906669  0.07358904    -0.17500
C1461       C  0.59858281  0.83978100  0.06169454    -0.19700
C1462       C  0.61572757  0.86177647  0.04953965     0.20500
C1463       C  0.59695384  0.88174593  0.03722147    -0.32800
C1464       C  0.61420341  0.90311057  0.02481938     0.01200
C1465       C  0.65051694  0.90523054  0.02495698    -0.24100
C1466       C  0.72658654  0.82252561  0.07333742    -0.28700
C1467       C  0.70916227  0.79987344  0.08518626     0.06900
C1468       C  0.67277767  0.79887223  0.08516189    -0.27300
H1469       H  0.75303175  0.86710001  0.04898523     0.11600
H1470       H  0.71986297  0.90320126  0.02790924     0.12700
H1471       H  0.60368120  0.80209402  0.08279322     0.11800
H1472       H  0.57055369  0.83838723  0.06189852     0.11100
H1473       H  0.56891510  0.88011553  0.03691369     0.16400
H1474       H  0.66362247  0.92174608  0.01524853     0.12400
H1475       H  0.75464932  0.82348178  0.07330435     0.15200
H1476       H  0.65910070  0.78188680  0.09441934     0.15000
C1477       C  0.61361523  0.62382709  0.13550796    -0.17900
C1478       C  0.63102911  0.64938604  0.12554665    -0.20100
C1479       C  0.66224075  0.66353527  0.13192427     0.20600
C1480       C  0.67606384  0.65165297  0.14846884    -0.03000
C1481       C  0.65826089  0.62630295  0.15864412    -0.06000
C1482       C  0.62690904  0.61223686  0.15211901     0.20900
C1483       C  0.67157813  0.61548674  0.17551167     0.19000
C1484       C  0.70294571  0.62923295  0.18179001    -0.17500
C1485       C  0.72084278  0.65387146  0.17157627    -0.19700
C1486       C  0.70747967  0.66542334  0.15501027     0.20500
C1487       C  0.72485502  0.69087352  0.14504401    -0.32800
C1488       C  0.71110855  0.70342882  0.12870364     0.01200
C1489       C  0.67973368  0.68954561  0.12218908    -0.24100
C1490       C  0.60914696  0.58743144  0.16254208    -0.28700
C1491       C  0.62184829  0.57763537  0.17960536     0.06900
C1492       C  0.65298624  0.59162190  0.18598536    -0.27300
H1493       H  0.58953019  0.61341549  0.13031979     0.11600
H1494       H  0.62003185  0.65814861  0.11287118     0.12700
H1495       H  0.71354696  0.62107159  0.19466591     0.11800
H1496       H  0.74496313  0.66422768  0.17675207     0.11100
H1497       H  0.74881437  0.70146942  0.15030517     0.16400
H1498       H  0.66890809  0.69897433  0.10959689     0.12400
H1499       H  0.58480232  0.57683405  0.15777163     0.15200
H1500       H  0.66260140  0.58397571  0.19917335     0.15000
C1501       C  0.88088857  0.84472215  0.11262259    -0.17900
C1502       C  0.90842376  0.86163514  0.12120555    -0.20100
C1503       C  0.91605755  0.85474769  0.13941424     0.20600
C1504       C  0.89636859  0.82980358  0.14891615    -0.03000
C1505       C  0.86900671  0.81232773  0.14016639    -0.06000
C1506       C  0.86075632  0.82035924  0.12204575     0.20900
C1507       C  0.84905745  0.78783704  0.14978919     0.19000
C1508       C  0.85683333  0.78066575  0.16794072    -0.17500
C1509       C  0.88345102  0.79848952  0.17671478    -0.19700
C1510       C  0.90303036  0.82338021  0.16738920     0.20500
C1511       C  0.92810661  0.84303797  0.17641283    -0.32800
C1512       C  0.94710793  0.86845655  0.16714753     0.01200
C1513       C  0.94187739  0.87348667  0.14854108    -0.24100
C1514       C  0.83173384  0.80489924  0.11392997    -0.28700
C1515       C  0.81111974  0.78126944  0.12366796     0.06900
C1516       C  0.82071010  0.77204359  0.14137789    -0.27300
H1517       H  0.87496918  0.85113850  0.09869727     0.11600
H1518       H  0.92319180  0.88076323  0.11373088     0.12700
H1519       H  0.84169723  0.76194650  0.17550142     0.11800
H1520       H  0.88833948  0.79322956  0.19088418     0.11100
H1521       H  0.93210274  0.83943080  0.19081591     0.16400
H1522       H  0.95616222  0.89359410  0.14150609     0.12400
H1523       H  0.82465295  0.81196472  0.10023213     0.15200
H1524       H  0.80495327  0.75399704  0.14905067     0.15000
C1525       C  0.98558477  0.61354085  0.39781211    -0.17900
C1526       C  0.97104624  0.62939690  0.38256349    -0.20100
C1527       C  0.94651909  0.61175679  0.37199720     0.20600
C1528       C  0.93647236  0.57784058  0.37690960    -0.03000
C1529       C  0.95136567  0.56173554  0.39214682    -0.06000
C1530       C  0.97597080  0.57971808  0.40270011     0.20900
C1531       C  0.94167167  0.52757162  0.39677694     0.19000
C1532       C  0.91717271  0.50991526  0.38626521    -0.17500
C1533       C  0.90215354  0.52600342  0.37130621    -0.19700
C1534       C  0.91165830  0.55986265  0.36653872     0.20500
C1535       C  0.89701311  0.57581477  0.35142630    -0.32800
C1536       C  0.90732008  0.60925129  0.34617105     0.01200
C1537       C  0.93205196  0.62720101  0.35653328    -0.24100
C1538       C  0.99045191  0.56346948  0.41791303    -0.28700
C1539       C  0.98072061  0.52950932  0.42248643     0.06900
C1540       C  0.95657727  0.51165402  0.41186271    -0.27300
H1541       H  0.00444773  0.62769269  0.40574945     0.11600
H1542       H  0.97902145  0.65544981  0.37902236     0.12700
H1543       H  0.90953857  0.48368511  0.38965174     0.11800
H1544       H  0.88321312  0.51188266  0.36339944     0.11100
H1545       H  0.87813852  0.56171086  0.34345171     0.16400
H1546       H  0.93989093  0.65311362  0.35261242     0.12400
H1547       H  0.00932898  0.57698349  0.42615263     0.15200
H1548       H  0.94935183  0.48538745  0.41547149     0.15000
C1549       C  0.73698011  0.56696244  0.32051725    -0.17900
C1550       C  0.70359316  0.55757072  0.31532862    -0.20100
C1551       C  0.69123609  0.56639862  0.29812077     0.20600
C1552       C  0.71239571  0.58510413  0.28601333    -0.03000
C1553       C  0.74601941  0.59473776  0.29128975    -0.06000
C1554       C  0.75834118  0.58545152  0.30859447     0.20900
C1555       C  0.76730743  0.61351056  0.27926348     0.19000
C1556       C  0.75482133  0.62234937  0.26204044    -0.17500
C1557       C  0.72147357  0.61250505  0.25673050    -0.19700
C1558       C  0.70007047  0.59386736  0.26861258     0.20500
C1559       C  0.66685062  0.58318803  0.26334229    -0.32800
C1560       C  0.64623795  0.56378084  0.27527919     0.01200
C1561       C  0.65826976  0.55618113  0.29271874    -0.24100
C1562       C  0.79175878  0.59494475  0.31376120    -0.28700
C1563       C  0.81300307  0.61400633  0.30198019     0.06900
C1564       C  0.80065658  0.62315014  0.28471508    -0.27300
H1565       H  0.74610861  0.55974559  0.33384910     0.11600
H1566       H  0.68752898  0.54314754  0.32471777     0.12700
H1567       H  0.77089996  0.63675537  0.25265386     0.11800
H1568       H  0.71246897  0.61936799  0.24332413     0.11100
H1569       H  0.65754692  0.58891613  0.24983696     0.16400
H1570       H  0.64218153  0.54171492  0.30207366     0.12400
H1571       H  0.80096023  0.58793558  0.32711676     0.15200
H1572       H  0.81693511  0.63778474  0.27551110     0.15000
C1573       C  0.90597993  0.77377503  0.24547302    -0.17900
C1574       C  0.89700405  0.74146852  0.25261404    -0.20100
C1575       C  0.91180699  0.72998390  0.26887111     0.20600
C1576       C  0.93716361  0.75031609  0.27754601    -0.03000
C1577       C  0.94618447  0.78286696  0.27036150    -0.06000
C1578       C  0.92987036  0.79500198  0.25449946     0.20900
C1579       C  0.97044367  0.80385410  0.27947689     0.19000
C1580       C  0.98666013  0.79150941  0.29517126    -0.17500
C1581       C  0.97763196  0.75925425  0.30232647    -0.19700
C1582       C  0.95231420  0.73889451  0.29386576     0.20500
C1583       C  0.94056869  0.70827477  0.30195096    -0.32800
C1584       C  0.91350592  0.68928458  0.29405780     0.01200
C1585       C  0.90037673  0.69944597  0.27710185    -0.24100
C1586       C  0.93686994  0.82857105  0.24830134    -0.28700
C1587       C  0.95982313  0.85012910  0.25782232     0.06900
C1588       C  0.97719004  0.83728153  0.27310059    -0.27300
H1589       H  0.89353806  0.78255568  0.23316879     0.11600
H1590       H  0.87770550  0.72594553  0.24572201     0.12700
H1591       H  0.00561489  0.80722459  0.30219834     0.11800
H1592       H  0.98969900  0.75069941  0.31477223     0.11100
H1593       H  0.95109889  0.70042203  0.31490162     0.16400
H1594       H  0.87996739  0.68456248  0.27069992     0.12400
H1595       H  0.92379116  0.83806191  0.23634115     0.15200
H1596       H  0.99535406  0.85361419  0.28033054     0.15000
loop_ 
_geom_bond_atom_site_label_1 
_geom_bond_atom_site_label_2 
_geom_bond_distance 
_geom_bond_site_symmetry_2 
_ccdc_geom_bond_type 
C1            N2   1.355       .  A
C1            N6   1.361       .  A
C1         C1584   1.475       .  S
N2            C3   1.351       .  A
C3            N4   1.354       .  A
C3         C1563   1.473       .  S
N4            C5   1.357       .  A
C5            N6   1.360       .  A
C5         C1536   1.476       .  S
C7            N8   1.357       .  A
C7           N12   1.358       .  A
C7         C1515   1.480       .  S
N8            C9   1.357       .  A
C9           N10   1.357       .  A
C9         C1488   1.483       .  S
N10          C11   1.361       .  A
C11          N12   1.359       .  A
C11        C1467   1.477       .  S
C13          N14   1.357       .  A
C13          N18   1.354       .  A
C13        C1443   1.471       .  S
N14          C15   1.360       .  A
C15          N16   1.362       .  A
C15        C1392   1.484       .  S
N16          C17   1.359       .  A
C17          N18   1.355       .  A
C17        C1419   1.477       .  S
C19          N20   1.361       .  A
C19          N24   1.361       .  A
C19        C1320   1.475       .  S
N20          C21   1.358       .  A
C21          N22   1.351       .  A
C21        C1371   1.476       .  S
N22          C23   1.352       .  A
C23          N24   1.358       .  A
C23        C1344   1.477       .  S
C25          N43   1.347       .  A
C25          C62   1.453       .  S
C25        C1416   1.456       .  S
N26          N43   1.321       .  A
N26          N48   1.317       .  A
N26         Co63   2.071       .  S
C27          N52   1.342       .  A
C27          C65   1.464       .  S
C27          H72   1.082       .  S
H28          C69   1.080       .  S
C29          N53   1.344   1_655  A
C29          C33   1.462       .  S
C29          H58   1.082   1_655  S
Co30         N48   2.063       .  S
Co30         N38   2.075   1_455  S
Co30         N70   2.071   1_565  S
Co30         N46   2.062   1_465  S
Co30        Cl74   2.449       .  S
N31          C69   1.340       .  A
N31          N38   1.320       .  A
N31         Co32   2.084       .  S
Co32         N35   2.076       .  S
Co32         N52   2.084   1_565  S
Co32         N39   2.090   1_565  S
Co32        Cl74   2.442   1_655  S
C33          N71   1.346       .  A
C33        C1512   1.468       .  S
N34          N41   1.320       .  A
N34          N64   1.320       .  A
N34         Co67   2.067       .  S
N35          N53   1.318   1_655  A
N35          N71   1.321       .  A
N36          C65   1.345       .  A
N36          N46   1.321       .  A
H37          C62   1.082       .  S
N38          N59   1.321       .  A
N39          N57   1.320   1_655  A
N39          N44   1.324       .  A
C40          N44   1.353       .  A
C40          C68   1.453       .  S
C40        C1347   1.469       .  S
N41          C56   1.344       .  A
N41         Co63   2.097       .  S
C42          N70   1.338       .  A
C42          C45   1.459       .  S
C42          H76   1.081       .  S
C45          N66   1.353       .  A
C45        C1248   1.476       .  S
N46          N52   1.317       .  A
N47          C73   1.339       .  A
N47          N49   1.318       .  A
N47         Co63   2.075   1_545  S
N48          C62   1.338       .  A
N49          N77   1.324       .  A
N49         Co67   2.080   1_545  S
H50          C73   1.082       .  S
H51          C68   1.080   1_455  S
N53         Co67   2.083       .  S
N54          N66   1.324       .  A
N54          N70   1.320       .  A
N54         Co63   2.097   1_545  S
C55          N59   1.348       .  A
C55          C69   1.460       .  S
C55        C1587   1.472       .  S
C56          C75   1.466       .  S
C56          H60   1.081       .  S
N57          C68   1.332   1_455  A
N57         Co67   2.061   1_545  S
C61          N77   1.349       .  A
C61          C73   1.459       .  S
C61        C1227   1.469       .  S
Co63        Cl74   2.440       .  S
N64          C75   1.346       .  A
C65        C1272   1.470       .  S
Co67        Cl74   2.452       .  S
C75        C1296   1.475       .  S
C78          N79   1.362       .  A
C78          N83   1.361       .  A
C78        C1179   1.481       .  S
N79          C80   1.359       .  A
C80          N81   1.354       .  A
C80        C1299   1.483       .  S
N81          C82   1.355       .  A
C82          N83   1.358       .  A
C82        C1200   1.480       .  S
C84          N85   1.355       .  A
C84          N89   1.348       .  A
C84        C1275   1.469       .  S
N85          C86   1.363       .  A
C86          N87   1.365       .  A
C86        C1128   1.481       .  S
N87          C88   1.360       .  A
C88          N89   1.352       .  A
C88        C1152   1.481       .  S
C90          N91   1.361       .  A
C90          N95   1.357       .  A
C90        C1083   1.478       .  S
N91          C92   1.360       .  A
C92          N93   1.357       .  A
C92        C1107   1.482       .  S
N93          C94   1.354       .  A
C94          N95   1.353       .  A
C94        C1251   1.478       .  S
C96          N97   1.367       .  A
C96         N101   1.365       .  A
C96        C1035   1.487       .  S
N97          C98   1.362       .  A
C98          N99   1.351       .  A
C98        C1224   1.483       .  S
N99         C100   1.348       .  A
C100        N101   1.358       .  A
C100       C1059   1.468       .  S
C102        N120   1.351       .  A
C102        C139   1.452       .  S
C102       C1560   1.465       .  S
N103        N120   1.326       .  A
N103        N125   1.320       .  A
N103       Co140   2.085       .  S
C104        N129   1.341       .  A
C104        C142   1.466       .  S
C104        H149   1.081       .  S
H105        C146   1.082       .  S
C106        N130   1.334       .  A
C106        C110   1.453       .  S
C106        H135   1.081       .  S
Co107       N125   2.061       .  S
Co107       N115   2.074       .  S
Co107       N147   2.071       .  S
Co107       N123   2.069       .  S
Co107      Cl151   2.458       .  S
N108        C146   1.338       .  A
N108        N115   1.319       .  A
N108       Co109   2.082       .  S
Co109       N112   2.104       .  S
Co109       N129   2.099       .  S
Co109       N116   2.077       .  S
Co109      Cl151   2.442       .  S
C110        N148   1.355       .  A
C110       C1368   1.474       .  S
N111        N118   1.318       .  A
N111        N141   1.326       .  A
N111       Co144   2.083       .  S
N112        N130   1.321       .  A
N112        N148   1.327       .  A
N113        C142   1.348       .  A
N113        N123   1.323       .  A
H114        C139   1.081       .  S
N115        N136   1.324       .  A
N116        N134   1.318       .  A
N116        N121   1.324       .  A
C117        N121   1.350       .  A
C117        C145   1.460       .  S
C117       C1056   1.472       .  S
N118        C133   1.340       .  A
N118       Co140   2.079       .  S
C119        N147   1.342       .  A
C119        C122   1.460       .  S
C119        H153   1.082       .  S
C122        N143   1.347       .  A
C122       C1440   1.468       .  S
N123        N129   1.321       .  A
N124        C150   1.336       .  A
N124        N126   1.319       .  A
N124       Co140   2.080       .  S
N125        C139   1.330       .  A
N126        N154   1.324       .  A
N126       Co144   2.075       .  S
H127        C150   1.081       .  S
H128        C145   1.081       .  S
N130       Co144   2.066       .  S
N131        N143   1.320       .  A
N131        N147   1.318       .  A
N131       Co140   2.076       .  S
C132        N136   1.347       .  A
C132        C146   1.460       .  S
C132       C1155   1.466       .  S
C133        C152   1.457       .  S
C133        H137   1.082       .  S
N134        C145   1.338       .  A
N134       Co144   2.078       .  S
C138        N154   1.350       .  A
C138        C150   1.460       .  S
C138       C1203   1.473       .  S
Co140      Cl151   2.437       .  S
N141        C152   1.349       .  A
C142       C1104   1.478       .  S
Co144      Cl151   2.453       .  S
C152       C1491   1.469       .  S
N155        C160   1.354       .  A
N155        C159   1.348       .  A
N155        H187   1.030       .  S
N156        C163   1.349       .  A
N156        C164   1.350       .  A
N157        C162   1.350       .  A
N157        C161   1.355       .  A
N157        H188   1.031       .  S
N158        C165   1.353   1_565  A
N158        C166   1.349   1_565  A
C159        C167   1.388       .  A
C159        C175   1.414       .  A
C160        C176   1.417       .  A
C160        C168   1.388       .  A
C161        C169   1.386       .  A
C161        C178   1.417       .  A
C162        C177   1.418   1_565  A
C162        C170   1.389       .  A
C163        C175   1.411       .  A
C163        C171   1.386       .  A
C164        C178   1.414       .  A
C164        C172   1.387       .  A
C165        C173   1.386       .  A
C165        C176   1.416   1_545  A
C166        C174   1.389       .  A
C166        C177   1.417       .  A
C167        H179   1.082       .  S
C167        C168   1.371       .  A
C168        H180   1.081       .  S
C169        H181   1.082       .  S
C169        C170   1.377       .  A
C170        H182   1.082       .  S
C171        H183   1.082       .  S
C171        C172   1.369       .  A
C172        H184   1.082       .  S
C173        H185   1.082       .  S
C173        C174   1.370       .  A
C174        H186   1.082       .  S
C175       C1008   1.468       .  S
C176        C984   1.487   1_565  S
C177       C1131   1.474       .  S
C178       C1395   1.483       .  S
N189        C194   1.355   1_556  A
N189        C193   1.352   1_556  A
N189        H221   1.037       .  S
N190        C197   1.352   1_455  A
N190        C198   1.354   1_455  A
N191        C196   1.353       .  A
N191        C195   1.357       .  A
N191        H222   1.031       .  S
N192        C199   1.353       .  A
N192        C200   1.350       .  A
C193        C201   1.389       .  A
C193        C209   1.417   1_455  A
C194        C210   1.413       .  A
C194        C202   1.385       .  A
C195        C203   1.387       .  A
C195        C212   1.424       .  A
C196        C211   1.422       .  A
C196        C204   1.388       .  A
C197        C209   1.417   1_556  A
C197        C205   1.385       .  A
C198        C212   1.422   1_655  A
C198        C206   1.388       .  A
C199        C207   1.384       .  A
C199        C210   1.411   1_556  A
C200        C208   1.389       .  A
C200        C211   1.417       .  A
C201        H213   1.082       .  S
C201        C202   1.372       .  A
C202        H214   1.082       .  S
C203        H215   1.082       .  S
C203        C204   1.379       .  A
C204        H216   1.082       .  S
C205        H217   1.082       .  S
C205        C206   1.372       .  A
C206        H218   1.082       .  S
C207        H219   1.082       .  S
C207        C208   1.372       .  A
C208        H220   1.082       .  S
C209       C1323   1.485       .  S
C210       C1176   1.487       .  S
C211        C936   1.480       .  S
C212        C960   1.496   1_455  S
N223        C228   1.352       .  A
N223        C227   1.351       .  A
N223        H255   1.036       .  S
N224        C231   1.349       .  A
N224        C232   1.349       .  A
N225        C230   1.351       .  A
N225        C229   1.353       .  A
N225        H256   1.031       .  S
N226        C233   1.352       .  A
N226        C234   1.352       .  A
C227        C235   1.388       .  A
C227        C243   1.415       .  A
C228        C244   1.415   1_455  A
C228        C236   1.387       .  A
C229        C237   1.387       .  A
C229        C246   1.419       .  A
C230        C245   1.421   1_455  A
C230        C238   1.389       .  A
C231        C243   1.411       .  A
C231        C239   1.387       .  A
C232        C246   1.415       .  A
C232        C240   1.388       .  A
C233        C241   1.386       .  A
C233        C244   1.415       .  A
C234        C242   1.388       .  A
C234        C245   1.419       .  A
C235        H247   1.082       .  S
C235        C236   1.374       .  A
C236        H248   1.082       .  S
C237        H249   1.082       .  S
C237        C238   1.377       .  A
C238        H250   1.082   1_455  S
C239        H251   1.082       .  S
C239        C240   1.369       .  A
C240        H252   1.082       .  S
C241        H253   1.082       .  S
C241        C242   1.373       .  A
C242        H254   1.082       .  S
C243       C1080   1.473       .  S
C244       C1539   1.481       .  S
C245        C915   1.483       .  S
C246        C891   1.481       .  S
N257        C262   1.355       .  A
N257        C261   1.352       .  A
N257        H289   1.035       .  S
N258        C265   1.350   1_565  A
N258        C266   1.353   1_565  A
N259        C264   1.351       .  A
N259        C263   1.355       .  A
N259        H290   1.034   1_554  S
N260        C267   1.354       .  A
N260        C268   1.350       .  A
C261        C269   1.390       .  A
C261        C277   1.418   1_565  A
C262        C278   1.415       .  A
C262        C270   1.385       .  A
C263        C271   1.386       .  A
C263        C280   1.416   1_565  A
C264        C279   1.418       .  A
C264        C272   1.389       .  A
C265        C277   1.414       .  A
C265        C273   1.387       .  A
C266        C280   1.414   1_556  A
C266        C274   1.385       .  A
C267        C275   1.385       .  A
C267        C278   1.414       .  A
C268        C276   1.388       .  A
C268        C279   1.416   1_556  A
C269        H281   1.082       .  S
C269        C270   1.375       .  A
C270        H282   1.082       .  S
C271        H283   1.082   1_565  S
C271        C272   1.376       .  A
C272        H284   1.082       .  S
C273        H285   1.082       .  S
C273        C274   1.372       .  A
C274        H286   1.082       .  S
C275        H287   1.082       .  S
C275        C276   1.371       .  A
C276        H288   1.082       .  S
C277        C840   1.478       .  S
C278        C867   1.492       .  S
C279       C1464   1.479       .  S
C280       C1032   1.488       .  S
C291        N292   1.352       .  A
C291        N296   1.362       .  A
C291        C792   1.481       .  S
N292        C293   1.348       .  A
C293        N294   1.358       .  A
C293        C819   1.483       .  S
N294        C295   1.364       .  A
C295        N296   1.365       .  A
C295        C864   1.482       .  S
C297        N298   1.352       .  A
C297        N302   1.358       .  A
C297        C768   1.476       .  S
N298        C299   1.354       .  A
C299        N300   1.362       .  A
C299        C747   1.485       .  S
N300        C301   1.365       .  A
C301        N302   1.363       .  A
C301        C963   1.490       .  S
C303        N304   1.358       .  A
C303        N308   1.360       .  A
C303        C843   1.482       .  S
N304        C305   1.356       .  A
C305        N306   1.357       .  A
C305        C696   1.482       .  S
N306        C307   1.358       .  A
C307        N308   1.360       .  A
C307        C720   1.481       .  S
C309        N310   1.353       .  A
C309        N314   1.352       .  A
C309        C675   1.474       .  S
N310        C311   1.358       .  A
C311        N312   1.364       .  A
C311        C939   1.482       .  S
N312        C313   1.363       .  A
C313        N314   1.356       .  A
C313        C648   1.483       .  S
C315        N316   1.365       .  A
C315        N320   1.366       .  A
C315        C888   1.485       .  S
N316        C317   1.359       .  A
C317        N318   1.351       .  A
C317        C624   1.482       .  S
N318        C319   1.351       .  A
C319        N320   1.358       .  A
C319        C600   1.478       .  S
C321        N322   1.359       .  A
C321        N326   1.364       .  A
C321        C987   1.483       .  S
N322        C323   1.354       .  A
C323        N324   1.353       .  A
C323        C552   1.478       .  S
N324        C325   1.355       .  A
C325        N326   1.363       .  A
C325        C576   1.483       .  S
C327        N345   1.348       .  A
C327        C364   1.455       .  S
C327        C651   1.461       .  S
N328        N345   1.322       .  A
N328        N350   1.317       .  A
N328       Co365   2.072       .  S
C329        N354   1.338       .  A
C329        C367   1.456       .  S
C329        H374   1.082       .  S
H330        C371   1.081       .  S
C331        N355   1.344       .  A
C331        C335   1.460       .  S
C331        H360   1.082       .  S
Co332       N350   2.071       .  S
Co332       N340   2.053       .  S
Co332       N372   2.066       .  S
Co332       N348   2.076       .  S
Co332      Cl376   2.451       .  S
N333        C371   1.345       .  A
N333        N340   1.320       .  A
N333       Co334   2.104       .  S
Co334       N337   2.076       .  S
Co334       N354   2.072       .  S
Co334       N341   2.103       .  S
Co334      Cl376   2.439       .  S
C335        N373   1.348       .  A
C335        C528   1.470       .  S
N336        N343   1.320       .  A
N336        N366   1.317       .  A
N336       Co369   2.051       .  S
N337        N355   1.318       .  A
N337        N373   1.322       .  A
N338        C367   1.349       .  A
N338        N348   1.323       .  A
H339        C364   1.082       .  S
N340        N361   1.317       .  A
N341        N359   1.321       .  A
N341        N346   1.326       .  A
C342        N346   1.354       .  A
C342        C370   1.454       .  S
C342        C555   1.472       .  S
N343        C358   1.347       .  A
N343       Co365   2.107       .  S
C344        N372   1.338       .  A
C344        C347   1.458       .  S
C344        H378   1.081       .  S
C347        N368   1.354       .  A
C347        C699   1.478       .  S
N348        N354   1.318       .  A
N349        C375   1.335       .  A
N349        N351   1.318       .  A
N349       Co365   2.065       .  S
N350        C364   1.339       .  A
N351        N379   1.326       .  A
N351       Co369   2.087       .  S
H352        C375   1.082       .  S
H353        C370   1.081       .  S
N355       Co369   2.082       .  S
N356        N368   1.325       .  A
N356        N372   1.320       .  A
N356       Co365   2.105       .  S
C357        N361   1.341       .  A
C357        C371   1.470       .  S
C357        C795   1.471       .  S
C358        C377   1.470       .  S
C358        H362   1.081       .  S
N359        C370   1.334       .  A
N359       Co369   2.060       .  S
C363        N379   1.352       .  A
C363        C375   1.454       .  S
C363        C627   1.468       .  S
Co365      Cl376   2.437       .  S
N366        C377   1.341       .  A
C367        C771   1.466       .  S
Co369      Cl376   2.455       .  S
C377        C507   1.472       .  S
C380        N381   1.358       .  A
C380        N385   1.353       .  A
C380        C480   1.476       .  S
N381        C382   1.363       .  A
C382        N383   1.364       .  A
C382        C912   1.485       .  S
N383        C384   1.360       .  A
C384        N385   1.354       .  A
C384        C531   1.480       .  S
C386        N387   1.361       .  A
C386        N391   1.364       .  A
C386       C1011   1.476       .  S
N387        C388   1.355       .  A
C388        N389   1.348       .  A
C388        C459   1.471       .  S
N389        C390   1.348       .  A
C390        N391   1.357       .  A
C390        C504   1.477       .  S
C392        N410   1.356       .  A
C392        C429   1.456       .  S
C392        C816   1.479       .  S
N393        N410   1.328   1_455  A
N393        N415   1.321       .  A
N393       Co430   2.107       .  S
C394        N419   1.344       .  A
C394        C432   1.464       .  S
C394        H439   1.081       .  S
H395        C436   1.082       .  S
C396        N420   1.332   1_655  A
C396        C400   1.454   1_565  S
C396        H425   1.081       .  S
Co397       N415   2.068       .  S
Co397       N405   2.084       .  S
Co397       N437   2.087       .  S
Co397       N413   2.069       .  S
Co397      Cl441   2.456       .  S
N398        C436   1.339   1_455  A
N398        N405   1.318   1_545  A
N398       Co399   2.072       .  S
Co399       N402   2.111       .  S
Co399       N419   2.101       .  S
Co399       N406   2.064       .  S
Co399      Cl441   2.436   1_545  S
C400        N438   1.357       .  A
C400        C579   1.477       .  S
N401        N408   1.318       .  A
N401        N431   1.323   1_455  A
N401       Co434   2.078       .  S
N402        N420   1.320   1_545  A
N402        N438   1.328   1_455  A
N403        C432   1.346   1_565  A
N403        N413   1.321       .  A
H404        C429   1.081       .  S
N405        N426   1.325   1_465  A
N406        N424   1.316   1_545  A
N406        N411   1.319       .  A
C407        N411   1.345       .  A
C407        C435   1.465   1_545  S
C407        C603   1.469       .  S
N408        C423   1.340   1_455  A
N408       Co430   2.070       .  S
C409        N437   1.344       .  A
C409        C412   1.464       .  S
C409        H443   1.082       .  S
C412        N433   1.344       .  A
C412        C672   1.467       .  S
N413        N419   1.321   1_565  A
N414        C440   1.342       .  A
N414        N416   1.320       .  A
N414       Co430   2.094       .  S
N415        C429   1.334   1_455  A
N416        N444   1.317       .  A
N416       Co434   2.053       .  S
H417        C440   1.081       .  S
H418        C435   1.082       .  S
N420       Co434   2.056       .  S
N421        N433   1.320       .  A
N421        N437   1.317       .  A
N421       Co430   2.062       .  S
C422        N426   1.350       .  A
C422        C436   1.457       .  S
C422        C744   1.466       .  S
C423        C442   1.458       .  S
C423        H427   1.082       .  S
N424        C435   1.346       .  A
N424       Co434   2.083       .  S
C428        N444   1.343       .  A
C428        C440   1.464       .  S
C428        C456   1.465       .  S
Co430      Cl441   2.441       .  S
N431        C442   1.348       .  A
C432        C723   1.475       .  S
Co434      Cl441   2.453       .  S
C442        C483   1.469       .  S
C445        H461   1.084       .  S
C445        C446   1.397       .  A
C445        C450   1.402       .  A
C446        H462   1.084       .  S
C446        C447   1.404       .  A
C447        C457   1.395       .  A
C447        C448   1.408       .  A
C448        C454   1.414       .  A
C448        C449   1.405       .  A
C449        C451   1.407       .  A
C449        C450   1.414       .  A
C450        C458   1.402       .  A
C451        C460   1.390       .  A
C451        C452   1.402       .  A
C452        H463   1.084       .  S
C452        C453   1.394       .  A
C453        H464   1.084       .  S
C453        C454   1.401       .  A
C454        C455   1.398       .  A
C455        H465   1.083       .  S
C455        C456   1.400       .  A
C456        C457   1.406       .  A
C457        H466   1.084       .  S
C458        H467   1.084       .  S
C458        C459   1.404       .  A
C459        C460   1.407       .  A
C460        H468   1.084       .  S
C469        H485   1.084       .  S
C469        C470   1.400       .  A
C469        C474   1.404       .  A
C470        H486   1.083       .  S
C470        C471   1.404       .  A
C471        C481   1.406       .  A
C471        C472   1.413       .  A
C472        C478   1.409       .  A
C472        C473   1.410       .  A
C473        C475   1.413       .  A
C473        C474   1.411       .  A
C474        C482   1.403       .  A
C475        C484   1.400       .  A
C475        C476   1.402       .  A
C476        H487   1.084       .  S
C476        C477   1.396       .  A
C477        H488   1.084       .  S
C477        C478   1.403       .  A
C478        C479   1.396       .  A
C479        H489   1.084       .  S
C479        C480   1.406       .  A
C480        C481   1.406       .  A
C481        H490   1.084       .  S
C482        H491   1.084       .  S
C482        C483   1.406       .  A
C483        C484   1.401       .  A
C484        H492   1.084       .  S
C493        H509   1.084       .  S
C493        C494   1.399       .  A
C493        C498   1.405       .  A
C494        H510   1.084       .  S
C494        C495   1.403       .  A
C495        C505   1.404       .  A
C495        C496   1.414       .  A
C496        C502   1.407       .  A
C496        C497   1.408       .  A
C497        C499   1.415       .  A
C497        C498   1.408       .  A
C498        C506   1.398       .  A
C499        C508   1.401       .  A
C499        C500   1.401       .  A
C500        H511   1.084       .  S
C500        C501   1.396       .  A
C501        H512   1.084       .  S
C501        C502   1.403       .  A
C502        C503   1.393       .  A
C503        H513   1.084       .  S
C503        C504   1.409       .  A
C504        C505   1.405       .  A
C505        H514   1.084       .  S
C506        H515   1.084       .  S
C506        C507   1.409       .  A
C507        C508   1.401       .  A
C508        H516   1.084       .  S
C517        H533   1.083       .  S
C517        C518   1.401       .  A
C517        C522   1.404       .  A
C518        H534   1.083       .  S
C518        C519   1.405       .  A
C519        C529   1.406       .  A
C519        C520   1.412       .  A
C520        C526   1.412       .  A
C520        C521   1.411       .  A
C521        C523   1.410       .  A
C521        C522   1.413       .  A
C522        C530   1.407       .  A
C523        C532   1.397       .  A
C523        C524   1.403       .  A
C524        H535   1.084       .  S
C524        C525   1.396       .  A
C525        H536   1.084       .  S
C525        C526   1.402       .  A
C526        C527   1.399       .  A
C527        H537   1.085       .  S
C527        C528   1.402       .  A
C528        C529   1.406       .  A
C529        H538   1.084       .  S
C530        H539   1.084       .  S
C530        C531   1.407       .  A
C531        C532   1.408       .  A
C532        H540   1.084       .  S
C541        H557   1.084       .  S
C541        C542   1.396       .  A
C541        C546   1.402       .  A
C542        H558   1.084       .  S
C542        C543   1.403       .  A
C543        C553   1.397       .  A
C543        C544   1.410       .  A
C544        C550   1.412       .  A
C544        C545   1.409       .  A
C545        C547   1.410       .  A
C545        C546   1.413       .  A
C546        C554   1.400       .  A
C547        C556   1.400       .  A
C547        C548   1.404       .  A
C548        H559   1.084       .  S
C548        C549   1.399       .  A
C549        H560   1.084       .  S
C549        C550   1.403       .  A
C550        C551   1.403       .  A
C551        H561   1.084       .  S
C551        C552   1.407       .  A
C552        C553   1.407       .  A
C553        H562   1.084       .  S
C554        H563   1.084       .  S
C554        C555   1.402       .  A
C555        C556   1.407       .  A
C556        H564   1.083       .  S
C565        H581   1.084   1_545  S
C565        C566   1.398       .  A
C565        C570   1.404       .  A
C566        H582   1.084       .  S
C566        C567   1.403       .  A
C567        C577   1.404       .  A
C567        C568   1.413       .  A
C568        C574   1.408       .  A
C568        C569   1.410       .  A
C569        C571   1.413       .  A
C569        C570   1.409       .  A
C570        C578   1.400       .  A
C571        C580   1.403       .  A
C571        C572   1.402       .  A
C572        H583   1.084       .  S
C572        C573   1.398       .  A
C573        H584   1.084       .  S
C573        C574   1.404       .  A
C574        C575   1.399       .  A
C575        H585   1.084       .  S
C575        C576   1.411       .  A
C576        C577   1.406       .  A
C577        H586   1.084       .  S
C578        H587   1.082   1_545  S
C578        C579   1.409       .  A
C579        C580   1.403       .  A
C580        H588   1.084       .  S
C589        H605   1.083       .  S
C589        C590   1.402       .  A
C589        C594   1.405       .  A
C590        H606   1.083       .  S
C590        C591   1.404       .  A
C591        C601   1.408       .  A
C591        C592   1.413       .  A
C592        C598   1.409       .  A
C592        C593   1.411       .  A
C593        C595   1.412       .  A
C593        C594   1.412       .  A
C594        C602   1.407       .  A
C595        C604   1.397       .  A
C595        C596   1.402       .  A
C596        H607   1.084       .  S
C596        C597   1.395       .  A
C597        H608   1.084       .  S
C597        C598   1.403       .  A
C598        C599   1.395       .  A
C599        H609   1.085       .  S
C599        C600   1.407       .  A
C600        C601   1.406       .  A
C601        H610   1.084       .  S
C602        H611   1.084       .  S
C602        C603   1.405       .  A
C603        C604   1.402       .  A
C604        H612   1.085       .  S
C613        H629   1.083       .  S
C613        C614   1.401       .  A
C613        C618   1.405       .  A
C614        H630   1.083       .  S
C614        C615   1.404       .  A
C615        C625   1.408       .  A
C615        C616   1.413       .  A
C616        C622   1.408       .  A
C616        C617   1.410       .  A
C617        C619   1.413       .  A
C617        C618   1.411       .  A
C618        C626   1.405       .  A
C619        C628   1.398       .  A
C619        C620   1.401       .  A
C620        H631   1.084       .  S
C620        C621   1.395       .  A
C621        H632   1.084       .  S
C621        C622   1.403       .  A
C622        C623   1.395       .  A
C623        H633   1.084       .  S
C623        C624   1.408       .  A
C624        C625   1.408       .  A
C625        H634   1.084       .  S
C626        H635   1.084       .  S
C626        C627   1.406       .  A
C627        C628   1.401       .  A
C628        H636   1.085       .  S
C637        H653   1.084       .  S
C637        C638   1.396       .  A
C637        C642   1.401       .  A
C638        H654   1.084       .  S
C638        C639   1.404       .  A
C639        C649   1.397       .  A
C639        C640   1.409       .  A
C640        C646   1.413       .  A
C640        C641   1.409       .  A
C641        C643   1.411       .  A
C641        C642   1.413       .  A
C642        C650   1.399       .  A
C643        C652   1.402       .  A
C643        C644   1.404       .  A
C644        H655   1.084       .  S
C644        C645   1.400       .  A
C645        H656   1.083       .  S
C645        C646   1.404       .  A
C646        C647   1.406       .  A
C647        H657   1.084       .  S
C647        C648   1.407       .  A
C648        C649   1.409       .  A
C649        H658   1.084       .  S
C650        H659   1.085       .  S
C650        C651   1.399       .  A
C651        C652   1.403       .  A
C652        H660   1.085       .  S
C661        H677   1.084       .  S
C661        C662   1.398       .  A
C661        C666   1.403       .  A
C662        H678   1.084       .  S
C662        C663   1.403       .  A
C663        C673   1.400       .  A
C663        C664   1.411       .  A
C664        C670   1.413       .  A
C664        C665   1.409       .  A
C665        C667   1.412       .  A
C665        C666   1.411       .  A
C666        C674   1.399       .  A
C667        C676   1.401       .  A
C667        C668   1.403       .  A
C668        H679   1.084       .  S
C668        C669   1.398       .  A
C669        H680   1.083       .  S
C669        C670   1.403       .  A
C670        C671   1.402       .  A
C671        H681   1.084       .  S
C671        C672   1.402       .  A
C672        C673   1.404       .  A
C673        H682   1.085       .  S
C674        H683   1.084       .  S
C674        C675   1.406       .  A
C675        C676   1.405       .  A
C676        H684   1.084       .  S
C685        H701   1.084       .  S
C685        C686   1.397       .  A
C685        C690   1.402       .  A
C686        H702   1.084       .  S
C686        C687   1.403       .  A
C687        C697   1.400       .  A
C687        C688   1.411       .  A
C688        C694   1.411       .  A
C688        C689   1.411       .  A
C689        C691   1.411       .  A
C689        C690   1.412       .  A
C690        C698   1.401       .  A
C691        C700   1.404       .  A
C691        C692   1.405       .  A
C692        H703   1.084       .  S
C692        C693   1.400       .  A
C693        H704   1.084       .  S
C693        C694   1.404       .  A
C694        C695   1.404       .  A
C695        H705   1.084       .  S
C695        C696   1.409       .  A
C696        C697   1.407       .  A
C697        H706   1.084       .  S
C698        H707   1.084       .  S
C698        C699   1.404       .  A
C699        C700   1.409       .  A
C700        H708   1.083       .  S
C709        H725   1.084       .  S
C709        C710   1.397       .  A
C709        C714   1.403       .  A
C710        H726   1.084       .  S
C710        C711   1.403       .  A
C711        C721   1.402       .  A
C711        C712   1.412       .  A
C712        C718   1.410       .  A
C712        C713   1.411       .  A
C713        C715   1.413       .  A
C713        C714   1.410       .  A
C714        C722   1.399       .  A
C715        C724   1.405       .  A
C715        C716   1.403       .  A
C716        H727   1.084       .  S
C716        C717   1.400       .  A
C717        H728   1.084       .  S
C717        C718   1.404       .  A
C718        C719   1.402       .  A
C719        H729   1.084       .  S
C719        C720   1.409       .  A
C720        C721   1.406       .  A
C721        H730   1.084       .  S
C722        H731   1.084       .  S
C722        C723   1.405       .  A
C723        C724   1.405       .  A
C724        H732   1.084       .  S
C733        H749   1.084       .  S
C733        C734   1.398       .  A
C733        C738   1.404       .  A
C734        H750   1.084       .  S
C734        C735   1.402       .  A
C735        C745   1.403       .  A
C735        C736   1.414       .  A
C736        C742   1.411       .  A
C736        C737   1.411       .  A
C737        C739   1.413       .  A
C737        C738   1.409       .  A
C738        C746   1.399       .  A
C739        C748   1.405       .  A
C739        C740   1.403       .  A
C740        H751   1.084       .  S
C740        C741   1.400       .  A
C741        H752   1.083       .  S
C741        C742   1.404       .  A
C742        C743   1.403       .  A
C743        H753   1.085       .  S
C743        C744   1.404       .  A
C744        C745   1.401       .  A
C745        H754   1.085       .  S
C746        H755   1.084       .  S
C746        C747   1.411       .  A
C747        C748   1.407       .  A
C748        H756   1.084       .  S
C757        H773   1.084       .  S
C757        C758   1.399       .  A
C757        C762   1.404       .  A
C758        H774   1.084       .  S
C758        C759   1.403       .  A
C759        C769   1.405       .  A
C759        C760   1.413       .  A
C760        C766   1.410       .  A
C760        C761   1.409       .  A
C761        C763   1.413       .  A
C761        C762   1.411       .  A
C762        C770   1.402       .  A
C763        C772   1.399       .  A
C763        C764   1.402       .  A
C764        H775   1.084       .  S
C764        C765   1.396       .  A
C765        H776   1.084       .  S
C765        C766   1.403       .  A
C766        C767   1.397       .  A
C767        H777   1.084       .  S
C767        C768   1.407       .  A
C768        C769   1.405       .  A
C769        H778   1.084       .  S
C770        H779   1.084       .  S
C770        C771   1.405       .  A
C771        C772   1.400       .  A
C772        H780   1.085       .  S
C781        H797   1.084       .  S
C781        C782   1.400       .  A
C781        C786   1.405       .  A
C782        H798   1.084       .  S
C782        C783   1.403       .  A
C783        C793   1.407       .  A
C783        C784   1.414       .  A
C784        C790   1.407       .  A
C784        C785   1.409       .  A
C785        C787   1.414       .  A
C785        C786   1.408       .  A
C786        C794   1.400       .  A
C787        C796   1.399       .  A
C787        C788   1.400       .  A
C788        H799   1.084       .  S
C788        C789   1.395       .  A
C789        H800   1.084       .  S
C789        C790   1.403       .  A
C790        C791   1.393       .  A
C791        H801   1.084       .  S
C791        C792   1.410       .  A
C792        C793   1.406       .  A
C793        H802   1.084       .  S
C794        H803   1.084       .  S
C794        C795   1.409       .  A
C795        C796   1.400       .  A
C796        H804   1.083       .  S
C805        H821   1.084       .  S
C805        C806   1.398       .  A
C805        C810   1.404       .  A
C806        H822   1.084       .  S
C806        C807   1.403       .  A
C807        C817   1.404       .  A
C807        C808   1.413       .  A
C808        C814   1.408       .  A
C808        C809   1.411       .  A
C809        C811   1.413       .  A
C809        C810   1.408       .  A
C810        C818   1.399       .  A
C811        C820   1.404       .  A
C811        C812   1.402       .  A
C812        H823   1.084       .  S
C812        C813   1.398       .  A
C813        H824   1.084       .  S
C813        C814   1.404       .  A
C814        C815   1.400       .  A
C815        H825   1.082       .  S
C815        C816   1.409       .  A
C816        C817   1.405       .  A
C817        H826   1.084       .  S
C818        H827   1.084       .  S
C818        C819   1.411       .  A
C819        C820   1.405       .  A
C820        H828   1.084       .  S
C829        H845   1.084       .  S
C829        C830   1.398       .  A
C829        C834   1.404       .  A
C830        H846   1.084       .  S
C830        C831   1.402       .  A
C831        C841   1.401       .  A
C831        C832   1.413       .  A
C832        C838   1.412       .  A
C832        C833   1.410       .  A
C833        C835   1.412       .  A
C833        C834   1.410       .  A
C834        C842   1.400       .  A
C835        C844   1.403       .  A
C835        C836   1.403       .  A
C836        H847   1.083       .  S
C836        C837   1.398       .  A
C837        H848   1.084   1_545  S
C837        C838   1.402       .  A
C838        C839   1.400       .  A
C839        H849   1.084   1_545  S
C839        C840   1.402       .  A
C840        C841   1.402       .  A
C841        H850   1.084       .  S
C842        H851   1.084       .  S
C842        C843   1.408       .  A
C843        C844   1.408       .  A
C844        H852   1.084       .  S
C853        H869   1.083       .  S
C853        C854   1.398       .  A
C853        C858   1.403       .  A
C854        H870   1.084       .  S
C854        C855   1.403       .  A
C855        C865   1.402       .  A
C855        C856   1.411       .  A
C856        C862   1.413       .  A
C856        C857   1.414       .  A
C857        C859   1.412       .  A
C857        C858   1.413       .  A
C858        C866   1.403       .  A
C859        C868   1.407       .  A
C859        C860   1.405       .  A
C860        H871   1.083       .  S
C860        C861   1.402       .  A
C861        H872   1.084       .  S
C861        C862   1.405       .  A
C862        C863   1.408       .  A
C863        H873   1.084       .  S
C863        C864   1.408       .  A
C864        C865   1.406       .  A
C865        H874   1.084       .  S
C866        H875   1.084       .  S
C866        C867   1.404       .  A
C867        C868   1.407       .  A
C868        H876   1.084       .  S
C877        H893   1.084       .  S
C877        C878   1.399       .  A
C877        C882   1.403       .  A
C878        H894   1.084       .  S
C878        C879   1.404       .  A
C879        C889   1.403       .  A
C879        C880   1.411       .  A
C880        C886   1.411       .  A
C880        C881   1.412       .  A
C881        C883   1.412       .  A
C881        C882   1.413       .  A
C882        C890   1.403       .  A
C883        C892   1.401       .  A
C883        C884   1.403       .  A
C884        H895   1.084       .  S
C884        C885   1.399       .  A
C885        H896   1.084       .  S
C885        C886   1.404       .  A
C886        C887   1.403       .  A
C887        H897   1.084       .  S
C887        C888   1.409       .  A
C888        C889   1.409       .  A
C889        H898   1.084       .  S
C890        H899   1.084       .  S
C890        C891   1.403       .  A
C891        C892   1.403       .  A
C892        H900   1.084       .  S
C901        H917   1.084       .  S
C901        C902   1.399       .  A
C901        C906   1.403       .  A
C902        H918   1.084       .  S
C902        C903   1.404       .  A
C903        C913   1.404       .  A
C903        C904   1.411       .  A
C904        C910   1.411       .  A
C904        C905   1.412       .  A
C905        C907   1.412       .  A
C905        C906   1.413       .  A
C906        C914   1.403       .  A
C907        C916   1.402       .  A
C907        C908   1.403       .  A
C908        H919   1.084       .  S
C908        C909   1.399       .  A
C909        H920   1.084       .  S
C909        C910   1.404       .  A
C910        C911   1.404       .  A
C911        H921   1.084       .  S
C911        C912   1.408       .  A
C912        C913   1.409       .  A
C913        H922   1.084       .  S
C914        H923   1.084       .  S
C914        C915   1.403       .  A
C915        C916   1.403       .  A
C916        H924   1.084       .  S
C925        H941   1.084       .  S
C925        C926   1.397       .  A
C925        C930   1.404       .  A
C926        H942   1.084       .  S
C926        C927   1.402       .  A
C927        C937   1.400       .  A
C927        C928   1.413       .  A
C928        C934   1.412       .  A
C928        C929   1.411       .  A
C929        C931   1.412       .  A
C929        C930   1.410       .  A
C930        C938   1.399       .  A
C931        C940   1.405       .  A
C931        C932   1.404       .  A
C932        H943   1.083       .  S
C932        C933   1.400       .  A
C933        H944   1.083       .  S
C933        C934   1.404       .  A
C934        C935   1.403       .  A
C935        H945   1.084       .  S
C935        C936   1.404       .  A
C936        C937   1.401       .  A
C937        H946   1.085       .  S
C938        H947   1.084       .  S
C938        C939   1.409       .  A
C939        C940   1.407       .  A
C940        H948   1.084       .  S
C949        H965   1.084       .  S
C949        C950   1.400       .  A
C949        C954   1.404       .  A
C950        H966   1.083       .  S
C950        C951   1.404       .  A
C951        C961   1.405       .  A
C951        C952   1.412       .  A
C952        C958   1.412       .  A
C952        C953   1.416       .  A
C953        C955   1.411       .  A
C953        C954   1.411       .  A
C954        C962   1.405       .  A
C955        C964   1.407       .  A
C955        C956   1.404       .  A
C956        H967   1.084       .  S
C956        C957   1.402       .  A
C957        H968   1.083   1_655  S
C957        C958   1.405       .  A
C958        C959   1.409   1_655  A
C959        H969   1.084       .  S
C959        C960   1.407   1_455  A
C960        C961   1.406       .  A
C961        H970   1.084       .  S
C962        H971   1.084       .  S
C962        C963   1.410       .  A
C963        C964   1.410       .  A
C964        H972   1.084       .  S
C973        H989   1.084       .  S
C973        C974   1.397       .  A
C973        C978   1.403       .  A
C974        H990   1.084       .  S
C974        C975   1.402       .  A
C975        C985   1.402       .  A
C975        C976   1.413       .  A
C976        C982   1.411       .  A
C976        C977   1.411       .  A
C977        C979   1.412       .  A
C977        C978   1.409       .  A
C978        C986   1.399       .  A
C979        C988   1.405       .  A
C979        C980   1.404       .  A
C980        H991   1.083   1_545  S
C980        C981   1.400   1_545  A
C981        H992   1.084       .  S
C981        C982   1.404   1_565  A
C982        C983   1.402   1_545  A
C983        H993   1.084       .  S
C983        C984   1.405   1_565  A
C984        C985   1.404       .  A
C985        H994   1.084       .  S
C986        H995   1.084       .  S
C986        C987   1.409       .  A
C987        C988   1.408       .  A
C988        H996   1.084       .  S
C997       H1013   1.084       .  S
C997        C998   1.397       .  A
C997       C1002   1.404       .  A
C998       H1014   1.084       .  S
C998        C999   1.402       .  A
C999       C1009   1.397       .  A
C999       C1000   1.412       .  A
C1000      C1006   1.413       .  A
C1000      C1001   1.406       .  A
C1001      C1003   1.411       .  A
C1001      C1002   1.411       .  A
C1002      C1010   1.399       .  A
C1003      C1012   1.397       .  A
C1003      C1004   1.403       .  A
C1004      H1015   1.084       .  S
C1004      C1005   1.396       .  A
C1005      H1016   1.084       .  S
C1005      C1006   1.401       .  A
C1006      C1007   1.396       .  A
C1007      H1017   1.085       .  S
C1007      C1008   1.399       .  A
C1008      C1009   1.400       .  A
C1009      H1018   1.085       .  S
C1010      H1019   1.084       .  S
C1010      C1011   1.408       .  A
C1011      C1012   1.405       .  A
C1012      H1020   1.084       .  S
C1021      H1037   1.084       .  S
C1021      C1022   1.400       .  A
C1021      C1026   1.404       .  A
C1022      H1038   1.084       .  S
C1022      C1023   1.403       .  A
C1023      C1033   1.404       .  A
C1023      C1024   1.412       .  A
C1024      C1030   1.413       .  A
C1024      C1025   1.414       .  A
C1025      C1027   1.411       .  A
C1025      C1026   1.411       .  A
C1026      C1034   1.405       .  A
C1027      C1036   1.406       .  A
C1027      C1028   1.404       .  A
C1028      H1039   1.084       .  S
C1028      C1029   1.401       .  A
C1029      H1040   1.083   1_545  S
C1029      C1030   1.404       .  A
C1030      C1031   1.407       .  A
C1031      H1041   1.084   1_545  S
C1031      C1032   1.405       .  A
C1032      C1033   1.404       .  A
C1033      H1042   1.084       .  S
C1034      H1043   1.084       .  S
C1034      C1035   1.408       .  A
C1035      C1036   1.409       .  A
C1036      H1044   1.084       .  S
C1045      H1061   1.083       .  S
C1045      C1046   1.398       .  A
C1045      C1050   1.402       .  A
C1046      H1062   1.083       .  S
C1046      C1047   1.403       .  A
C1047      C1057   1.400       .  A
C1047      C1048   1.410       .  A
C1048      C1054   1.413       .  A
C1048      C1049   1.410       .  A
C1049      C1051   1.410       .  A
C1049      C1050   1.414       .  A
C1050      C1058   1.404       .  A
C1051      C1060   1.399       .  A
C1051      C1052   1.404       .  A
C1052      H1063   1.084       .  S
C1052      C1053   1.399       .  A
C1053      H1064   1.084       .  S
C1053      C1054   1.403       .  A
C1054      C1055   1.403       .  A
C1055      H1065   1.085       .  S
C1055      C1056   1.404       .  A
C1056      C1057   1.405       .  A
C1057      H1066   1.083       .  S
C1058      H1067   1.084       .  S
C1058      C1059   1.401       .  A
C1059      C1060   1.406       .  A
C1060      H1068   1.085       .  S
C1069      H1085   1.084       .  S
C1069      C1070   1.397       .  A
C1069      C1074   1.403       .  A
C1070      H1086   1.084       .  S
C1070      C1071   1.402       .  A
C1071      C1081   1.399       .  A
C1071      C1072   1.413       .  A
C1072      C1078   1.412       .  A
C1072      C1073   1.407       .  A
C1073      C1075   1.412       .  A
C1073      C1074   1.410       .  A
C1074      C1082   1.397       .  A
C1075      C1084   1.401       .  A
C1075      C1076   1.403       .  A
C1076      H1087   1.084       .  S
C1076      C1077   1.397       .  A
C1077      H1088   1.084       .  S
C1077      C1078   1.402       .  A
C1078      C1079   1.398       .  A
C1079      H1089   1.084       .  S
C1079      C1080   1.401       .  A
C1080      C1081   1.400       .  A
C1081      H1090   1.084       .  S
C1082      H1091   1.084       .  S
C1082      C1083   1.408       .  A
C1083      C1084   1.406       .  A
C1084      H1092   1.084       .  S
C1093      H1109   1.084       .  S
C1093      C1094   1.396       .  A
C1093      C1098   1.402       .  A
C1094      H1110   1.084       .  S
C1094      C1095   1.402       .  A
C1095      C1105   1.400       .  A
C1095      C1096   1.412       .  A
C1096      C1102   1.410       .  A
C1096      C1097   1.411       .  A
C1097      C1099   1.412       .  A
C1097      C1098   1.409       .  A
C1098      C1106   1.397       .  A
C1099      C1108   1.406       .  A
C1099      C1100   1.404       .  A
C1100      H1111   1.084       .  S
C1100      C1101   1.401       .  A
C1101      H1112   1.084       .  S
C1101      C1102   1.405       .  A
C1102      C1103   1.404       .  A
C1103      H1113   1.084       .  S
C1103      C1104   1.409       .  A
C1104      C1105   1.403       .  A
C1105      H1114   1.083       .  S
C1106      H1115   1.084       .  S
C1106      C1107   1.407       .  A
C1107      C1108   1.409       .  A
C1108      H1116   1.084       .  S
C1117      H1133   1.084   1_545  S
C1117      C1118   1.397       .  A
C1117      C1122   1.402       .  A
C1118      H1134   1.084       .  S
C1118      C1119   1.403       .  A
C1119      C1129   1.399       .  A
C1119      C1120   1.410       .  A
C1120      C1126   1.411       .  A
C1120      C1121   1.409       .  A
C1121      C1123   1.412       .  A
C1121      C1122   1.413       .  A
C1122      C1130   1.399       .  A
C1123      C1132   1.400       .  A
C1123      C1124   1.403       .  A
C1124      H1135   1.084       .  S
C1124      C1125   1.398       .  A
C1125      H1136   1.084       .  S
C1125      C1126   1.404       .  A
C1126      C1127   1.402       .  A
C1127      H1137   1.084       .  S
C1127      C1128   1.408       .  A
C1128      C1129   1.407       .  A
C1129      H1138   1.084       .  S
C1130      H1139   1.085   1_545  S
C1130      C1131   1.400       .  A
C1131      C1132   1.401       .  A
C1132      H1140   1.084       .  S
C1141      H1157   1.083       .  S
C1141      C1142   1.402       .  A
C1141      C1146   1.405       .  A
C1142      H1158   1.084       .  S
C1142      C1143   1.404       .  A
C1143      C1153   1.408       .  A
C1143      C1144   1.413       .  A
C1144      C1150   1.408       .  A
C1144      C1145   1.409       .  A
C1145      C1147   1.413       .  A
C1145      C1146   1.411       .  A
C1146      C1154   1.405       .  A
C1147      C1156   1.397       .  A
C1147      C1148   1.400       .  A
C1148      H1159   1.084       .  S
C1148      C1149   1.394       .  A
C1149      H1160   1.084       .  S
C1149      C1150   1.402       .  A
C1150      C1151   1.392       .  A
C1151      H1161   1.084       .  S
C1151      C1152   1.408       .  A
C1152      C1153   1.408       .  A
C1153      H1162   1.084       .  S
C1154      H1163   1.084       .  S
C1154      C1155   1.407       .  A
C1155      C1156   1.398       .  A
C1156      H1164   1.085       .  S
C1165      H1181   1.084       .  S
C1165      C1166   1.399       .  A
C1165      C1170   1.403       .  A
C1166      H1182   1.083       .  S
C1166      C1167   1.403       .  A
C1167      C1177   1.403       .  A
C1167      C1168   1.412       .  A
C1168      C1174   1.413       .  A
C1168      C1169   1.413       .  A
C1169      C1171   1.411       .  A
C1169      C1170   1.412       .  A
C1170      C1178   1.403       .  A
C1171      C1180   1.403       .  A
C1171      C1172   1.404       .  A
C1172      H1183   1.084       .  S
C1172      C1173   1.400       .  A
C1173      H1184   1.083       .  S
C1173      C1174   1.403       .  A
C1174      C1175   1.404       .  A
C1175      H1185   1.084       .  S
C1175      C1176   1.404       .  A
C1176      C1177   1.404       .  A
C1177      H1186   1.084       .  S
C1178      H1187   1.084       .  S
C1178      C1179   1.407       .  A
C1179      C1180   1.408       .  A
C1180      H1188   1.084       .  S
C1189      H1205   1.084       .  S
C1189      C1190   1.400       .  A
C1189      C1194   1.404       .  A
C1190      H1206   1.084       .  S
C1190      C1191   1.404       .  A
C1191      C1201   1.404       .  A
C1191      C1192   1.412       .  A
C1192      C1198   1.410       .  A
C1192      C1193   1.409       .  A
C1193      C1195   1.411       .  A
C1193      C1194   1.411       .  A
C1194      C1202   1.404       .  A
C1195      C1204   1.396       .  A
C1195      C1196   1.402       .  A
C1196      H1207   1.084       .  S
C1196      C1197   1.395       .  A
C1197      H1208   1.084       .  S
C1197      C1198   1.402       .  A
C1198      C1199   1.397       .  A
C1199      H1209   1.084       .  S
C1199      C1200   1.407       .  A
C1200      C1201   1.408       .  A
C1201      H1210   1.084       .  S
C1202      H1211   1.084       .  S
C1202      C1203   1.406       .  A
C1203      C1204   1.404       .  A
C1204      H1212   1.082       .  S
C1213      H1229   1.084       .  S
C1213      C1214   1.396       .  A
C1213      C1218   1.402       .  A
C1214      H1230   1.084       .  S
C1214      C1215   1.403       .  A
C1215      C1225   1.394       .  A
C1215      C1216   1.408       .  A
C1216      C1222   1.414       .  A
C1216      C1217   1.410       .  A
C1217      C1219   1.410       .  A
C1217      C1218   1.414       .  A
C1218      C1226   1.400       .  A
C1219      C1228   1.402       .  A
C1219      C1220   1.404       .  A
C1220      H1231   1.083       .  S
C1220      C1221   1.400       .  A
C1221      H1232   1.083       .  S
C1221      C1222   1.404       .  A
C1222      C1223   1.408       .  A
C1223      H1233   1.084       .  S
C1223      C1224   1.407       .  A
C1224      C1225   1.410       .  A
C1225      H1234   1.084       .  S
C1226      H1235   1.085       .  S
C1226      C1227   1.401       .  A
C1227      C1228   1.405       .  A
C1228      H1236   1.084       .  S
C1237      H1253   1.084       .  S
C1237      C1238   1.396       .  A
C1237      C1242   1.402       .  A
C1238      H1254   1.084       .  S
C1238      C1239   1.402       .  A
C1239      C1249   1.399       .  A
C1239      C1240   1.411       .  A
C1240      C1246   1.411       .  A
C1240      C1241   1.409       .  A
C1241      C1243   1.411       .  A
C1241      C1242   1.410       .  A
C1242      C1250   1.397       .  A
C1243      C1252   1.402       .  A
C1243      C1244   1.404       .  A
C1244      H1255   1.084       .  S
C1244      C1245   1.399       .  A
C1245      H1256   1.084       .  S
C1245      C1246   1.404       .  A
C1246      C1247   1.402       .  A
C1247      H1257   1.083       .  S
C1247      C1248   1.408       .  A
C1248      C1249   1.404       .  A
C1249      H1258   1.084       .  S
C1250      H1259   1.084       .  S
C1250      C1251   1.406       .  A
C1251      C1252   1.409       .  A
C1252      H1260   1.084       .  S
C1261      H1277   1.084       .  S
C1261      C1262   1.400       .  A
C1261      C1266   1.403       .  A
C1262      H1278   1.084       .  S
C1262      C1263   1.405       .  A
C1263      C1273   1.401       .  A
C1263      C1264   1.410       .  A
C1264      C1270   1.414       .  A
C1264      C1265   1.409       .  A
C1265      C1267   1.409       .  A
C1265      C1266   1.414       .  A
C1266      C1274   1.406       .  A
C1267      C1276   1.394       .  A
C1267      C1268   1.402       .  A
C1268      H1279   1.084       .  S
C1268      C1269   1.395       .  A
C1269      H1280   1.084       .  S
C1269      C1270   1.401       .  A
C1270      C1271   1.400       .  A
C1271      H1281   1.084       .  S
C1271      C1272   1.401       .  A
C1272      C1273   1.407       .  A
C1273      H1282   1.084       .  S
C1274      H1283   1.084       .  S
C1274      C1275   1.404       .  A
C1275      C1276   1.404       .  A
C1276      H1284   1.085       .  S
C1285      H1301   1.084       .  S
C1285      C1286   1.399       .  A
C1285      C1290   1.404       .  A
C1286      H1302   1.084       .  S
C1286      C1287   1.403       .  A
C1287      C1297   1.404       .  A
C1287      C1288   1.413       .  A
C1288      C1294   1.409       .  A
C1288      C1289   1.411       .  A
C1289      C1291   1.413       .  A
C1289      C1290   1.409       .  A
C1290      C1298   1.400       .  A
C1291      C1300   1.403       .  A
C1291      C1292   1.403       .  A
C1292      H1303   1.084       .  S
C1292      C1293   1.398       .  A
C1293      H1304   1.084       .  S
C1293      C1294   1.403       .  A
C1294      C1295   1.398       .  A
C1295      H1305   1.084       .  S
C1295      C1296   1.406       .  A
C1296      C1297   1.405       .  A
C1297      H1306   1.083       .  S
C1298      H1307   1.084       .  S
C1298      C1299   1.410       .  A
C1299      C1300   1.406       .  A
C1300      H1308   1.084       .  S
C1309      H1325   1.084       .  S
C1309      C1310   1.398       .  A
C1309      C1314   1.402       .  A
C1310      H1326   1.083       .  S
C1310      C1311   1.403       .  A
C1311      C1321   1.401       .  A
C1311      C1312   1.412       .  A
C1312      C1318   1.412       .  A
C1312      C1313   1.410       .  A
C1313      C1315   1.412       .  A
C1313      C1314   1.412       .  A
C1314      C1322   1.400       .  A
C1315      C1324   1.402       .  A
C1315      C1316   1.403       .  A
C1316      H1327   1.084       .  S
C1316      C1317   1.399       .  A
C1317      H1328   1.084       .  S
C1317      C1318   1.403       .  A
C1318      C1319   1.402       .  A
C1319      H1329   1.084       .  S
C1319      C1320   1.406       .  A
C1320      C1321   1.405       .  A
C1321      H1330   1.084       .  S
C1322      H1331   1.084       .  S
C1322      C1323   1.403       .  A
C1323      C1324   1.406       .  A
C1324      H1332   1.084       .  S
C1333      H1349   1.084       .  S
C1333      C1334   1.396       .  A
C1333      C1338   1.401       .  A
C1334      H1350   1.084       .  S
C1334      C1335   1.403       .  A
C1335      C1345   1.395       .  A
C1335      C1336   1.408       .  A
C1336      C1342   1.413       .  A
C1336      C1337   1.407       .  A
C1337      C1339   1.409       .  A
C1337      C1338   1.413       .  A
C1338      C1346   1.399       .  A
C1339      C1348   1.397       .  A
C1339      C1340   1.403       .  A
C1340      H1351   1.084       .  S
C1340      C1341   1.397       .  A
C1341      H1352   1.084       .  S
C1341      C1342   1.403       .  A
C1342      C1343   1.402       .  A
C1343      H1353   1.084       .  S
C1343      C1344   1.405       .  A
C1344      C1345   1.408       .  A
C1345      H1354   1.084       .  S
C1346      H1355   1.084       .  S
C1346      C1347   1.402       .  A
C1347      C1348   1.406       .  A
C1348      H1356   1.082       .  S
C1357      H1373   1.084       .  S
C1357      C1358   1.397       .  A
C1357      C1362   1.403       .  A
C1358      H1374   1.084       .  S
C1358      C1359   1.402       .  A
C1359      C1369   1.402       .  A
C1359      C1360   1.413       .  A
C1360      C1366   1.409       .  A
C1360      C1361   1.409       .  A
C1361      C1363   1.413       .  A
C1361      C1362   1.409       .  A
C1362      C1370   1.397       .  A
C1363      C1372   1.403       .  A
C1363      C1364   1.402       .  A
C1364      H1375   1.084       .  S
C1364      C1365   1.398       .  A
C1365      H1376   1.084       .  S
C1365      C1366   1.404       .  A
C1366      C1367   1.400       .  A
C1367      H1377   1.083       .  S
C1367      C1368   1.407       .  A
C1368      C1369   1.403       .  A
C1369      H1378   1.084       .  S
C1370      H1379   1.084       .  S
C1370      C1371   1.408       .  A
C1371      C1372   1.405       .  A
C1372      H1380   1.084       .  S
C1381      H1397   1.083       .  S
C1381      C1382   1.399       .  A
C1381      C1386   1.403       .  A
C1382      H1398   1.084       .  S
C1382      C1383   1.403       .  A
C1383      C1393   1.403       .  A
C1383      C1384   1.411       .  A
C1384      C1390   1.410       .  A
C1384      C1385   1.412       .  A
C1385      C1387   1.413       .  A
C1385      C1386   1.412       .  A
C1386      C1394   1.402       .  A
C1387      C1396   1.404       .  A
C1387      C1388   1.403       .  A
C1388      H1399   1.084       .  S
C1388      C1389   1.399       .  A
C1389      H1400   1.084       .  S
C1389      C1390   1.404       .  A
C1390      C1391   1.402       .  A
C1391      H1401   1.084       .  S
C1391      C1392   1.409       .  A
C1392      C1393   1.408       .  A
C1393      H1402   1.084       .  S
C1394      H1403   1.084       .  S
C1394      C1395   1.404       .  A
C1395      C1396   1.404       .  A
C1396      H1404   1.084       .  S
C1405      H1421   1.083       .  S
C1405      C1406   1.398       .  A
C1405      C1410   1.403       .  A
C1406      H1422   1.084       .  S
C1406      C1407   1.403       .  A
C1407      C1417   1.400       .  A
C1407      C1408   1.412       .  A
C1408      C1414   1.413       .  A
C1408      C1409   1.408       .  A
C1409      C1411   1.410       .  A
C1409      C1410   1.412       .  A
C1410      C1418   1.403       .  A
C1411      C1420   1.398       .  A
C1411      C1412   1.403       .  A
C1412      H1423   1.084       .  S
C1412      C1413   1.396       .  A
C1413      H1424   1.084       .  S
C1413      C1414   1.401       .  A
C1414      C1415   1.398       .  A
C1415      H1425   1.085       .  S
C1415      C1416   1.399       .  A
C1416      C1417   1.402       .  A
C1417      H1426   1.085       .  S
C1418      H1427   1.084       .  S
C1418      C1419   1.406       .  A
C1419      C1420   1.407       .  A
C1420      H1428   1.084       .  S
C1429      H1445   1.084       .  S
C1429      C1430   1.400       .  A
C1429      C1434   1.404       .  A
C1430      H1446   1.084       .  S
C1430      C1431   1.404       .  A
C1431      C1441   1.404       .  A
C1431      C1432   1.413       .  A
C1432      C1438   1.411       .  A
C1432      C1433   1.409       .  A
C1433      C1435   1.411       .  A
C1433      C1434   1.412       .  A
C1434      C1442   1.404       .  A
C1435      C1444   1.397       .  A
C1435      C1436   1.402       .  A
C1436      H1447   1.084       .  S
C1436      C1437   1.395       .  A
C1437      H1448   1.084       .  S
C1437      C1438   1.402       .  A
C1438      C1439   1.396       .  A
C1439      H1449   1.085       .  S
C1439      C1440   1.402       .  A
C1440      C1441   1.405       .  A
C1441      H1450   1.084       .  S
C1442      H1451   1.084       .  S
C1442      C1443   1.405       .  A
C1443      C1444   1.404       .  A
C1444      H1452   1.085       .  S
C1453      H1469   1.084       .  S
C1453      C1454   1.400       .  A
C1453      C1458   1.404       .  A
C1454      H1470   1.084       .  S
C1454      C1455   1.404       .  A
C1455      C1465   1.402       .  A
C1455      C1456   1.412       .  A
C1456      C1462   1.412       .  A
C1456      C1457   1.409       .  A
C1457      C1459   1.411       .  A
C1457      C1458   1.412       .  A
C1458      C1466   1.404       .  A
C1459      C1468   1.397       .  A
C1459      C1460   1.402       .  A
C1460      H1471   1.084       .  S
C1460      C1461   1.396       .  A
C1461      H1472   1.084       .  S
C1461      C1462   1.401       .  A
C1462      C1463   1.397       .  A
C1463      H1473   1.085       .  S
C1463      C1464   1.400       .  A
C1464      C1465   1.404       .  A
C1465      H1474   1.084       .  S
C1466      H1475   1.084       .  S
C1466      C1467   1.408       .  A
C1467      C1468   1.405       .  A
C1468      H1476   1.084       .  S
C1477      H1493   1.084       .  S
C1477      C1478   1.402       .  A
C1477      C1482   1.405       .  A
C1478      H1494   1.084       .  S
C1478      C1479   1.405       .  A
C1479      C1489   1.407       .  A
C1479      C1480   1.412       .  A
C1480      C1486   1.410       .  A
C1480      C1481   1.412       .  A
C1481      C1483   1.413       .  A
C1481      C1482   1.412       .  A
C1482      C1490   1.406       .  A
C1483      C1492   1.400       .  A
C1483      C1484   1.402       .  A
C1484      H1495   1.084       .  S
C1484      C1485   1.396       .  A
C1485      H1496   1.084       .  S
C1485      C1486   1.403       .  A
C1486      C1487   1.398       .  A
C1487      H1497   1.084       .  S
C1487      C1488   1.406       .  A
C1488      C1489   1.410       .  A
C1489      H1498   1.084       .  S
C1490      H1499   1.084       .  S
C1490      C1491   1.406       .  A
C1491      C1492   1.400       .  A
C1492      H1500   1.085       .  S
C1501      H1517   1.084       .  S
C1501      C1502   1.400       .  A
C1501      C1506   1.404       .  A
C1502      H1518   1.083       .  S
C1502      C1503   1.404       .  A
C1503      C1513   1.405       .  A
C1503      C1504   1.413       .  A
C1504      C1510   1.412       .  A
C1504      C1505   1.411       .  A
C1505      C1507   1.411       .  A
C1505      C1506   1.412       .  A
C1506      C1514   1.405       .  A
C1507      C1516   1.399       .  A
C1507      C1508   1.403       .  A
C1508      H1519   1.084       .  S
C1508      C1509   1.397       .  A
C1509      H1520   1.084       .  S
C1509      C1510   1.403       .  A
C1510      C1511   1.400       .  A
C1511      H1521   1.085       .  S
C1511      C1512   1.403       .  A
C1512      C1513   1.404       .  A
C1513      H1522   1.084       .  S
C1514      H1523   1.084       .  S
C1514      C1515   1.407       .  A
C1515      C1516   1.407       .  A
C1516      H1524   1.084       .  S
C1525      H1541   1.083   1_655  S
C1525      C1526   1.401       .  A
C1525      C1530   1.404       .  A
C1526      H1542   1.084       .  S
C1526      C1527   1.404       .  A
C1527      C1537   1.406       .  A
C1527      C1528   1.413       .  A
C1528      C1534   1.410       .  A
C1528      C1529   1.410       .  A
C1529      C1531   1.413       .  A
C1529      C1530   1.412       .  A
C1530      C1538   1.405       .  A
C1531      C1540   1.398       .  A
C1531      C1532   1.402       .  A
C1532      H1543   1.084       .  S
C1532      C1533   1.395       .  A
C1533      H1544   1.084       .  S
C1533      C1534   1.402       .  A
C1534      C1535   1.396       .  A
C1535      H1545   1.084       .  S
C1535      C1536   1.405       .  A
C1536      C1537   1.407       .  A
C1537      H1546   1.084       .  S
C1538      H1547   1.084   1_655  S
C1538      C1539   1.405       .  A
C1539      C1540   1.401       .  A
C1540      H1548   1.085       .  S
C1549      H1565   1.084       .  S
C1549      C1550   1.393       .  A
C1549      C1554   1.401       .  A
C1550      H1566   1.084       .  S
C1550      C1551   1.401       .  A
C1551      C1561   1.391       .  A
C1551      C1552   1.409       .  A
C1552      C1558   1.413       .  A
C1552      C1553   1.406       .  A
C1553      C1555   1.410       .  A
C1553      C1554   1.412       .  A
C1554      C1562   1.395       .  A
C1555      C1564   1.400       .  A
C1555      C1556   1.404       .  A
C1556      H1567   1.084       .  S
C1556      C1557   1.399       .  A
C1557      H1568   1.084       .  S
C1557      C1558   1.403       .  A
C1558      C1559   1.403       .  A
C1559      H1569   1.084       .  S
C1559      C1560   1.404       .  A
C1560      C1561   1.402       .  A
C1561      H1570   1.083       .  S
C1562      H1571   1.084       .  S
C1562      C1563   1.403       .  A
C1563      C1564   1.408       .  A
C1564      H1572   1.084       .  S
C1573      H1589   1.084       .  S
C1573      C1574   1.397       .  A
C1573      C1578   1.403       .  A
C1574      H1590   1.084       .  S
C1574      C1575   1.404       .  A
C1575      C1585   1.397       .  A
C1575      C1576   1.409       .  A
C1576      C1582   1.412       .  A
C1576      C1577   1.407       .  A
C1577      C1579   1.410       .  A
C1577      C1578   1.412       .  A
C1578      C1586   1.400       .  A
C1579      C1588   1.398       .  A
C1579      C1580   1.403       .  A
C1580      H1591   1.084   1_655  S
C1580      C1581   1.397       .  A
C1581      H1592   1.084       .  S
C1581      C1582   1.402       .  A
C1582      C1583   1.399       .  A
C1583      H1593   1.084       .  S
C1583      C1584   1.404       .  A
C1584      C1585   1.409       .  A
C1585      H1594   1.084       .  S
C1586      H1595   1.083       .  S
C1586      C1587   1.405       .  A
C1587      C1588   1.405       .  A
C1588      H1596   1.084       .  S
