geometry optimzed in LAMMPS
_audit_creation_date              2020-12-01 
_audit_creation_method            'lammps2cif' 
_symmetry_space_group_name_H-M    'P1' 
_symmetry_Int_Tables_number       1 
_symmetry_cell_setting            triclinic 
loop_ 
_symmetry_equiv_pos_as_xyz 
  x,y,z 
_cell_length_a                    42.50090273 
_cell_length_b                    42.35939396602893 
_cell_length_c                    42.3050362262117 
_cell_angle_alpha                 89.75861158992761 
_cell_angle_beta                  90.13633946696694 
_cell_angle_gamma                 89.90230582885005 
loop_ 
_atom_site_label 
_atom_site_type_symbol 
_atom_site_fract_x 
_atom_site_fract_y 
_atom_site_fract_z 
_atom_site_charge 
C1          C  0.06907314  0.72744957  0.94868507     0.80600
N2          N  0.06743155  0.72612972  0.91693333    -0.77700
C3          C  0.05213331  0.70275780  0.90194219     0.83100
N4          N  0.03841652  0.67937318  0.91940013    -0.77600
C5          C  0.03931297  0.68037888  0.95175313     0.83200
N6          N  0.05472590  0.70461451  0.96638534    -0.79300
C7          C  0.87270727  0.72120508  0.94207827     0.80600
N8          N  0.88881729  0.70012717  0.96057760    -0.77700
C9          C  0.90792803  0.67810497  0.94710317     0.83100
N10         N  0.91088603  0.67755174  0.91493936    -0.77600
C11         C  0.89554975  0.69917524  0.89647229     0.83200
N12         N  0.87628319  0.72050193  0.91029699    -0.79300
C13         C  0.88338914  0.68544443  0.15520100     0.80600
N14         N  0.85399364  0.69269429  0.14561503    -0.77700
C15         C  0.84332764  0.68419353  0.11679819     0.83100
N16         N  0.86302994  0.66848879  0.09674977    -0.77600
C17         C  0.89328027  0.66167041  0.10561552     0.83200
N18         N  0.90320422  0.66973661  0.13528477    -0.79300
C19         C  0.06024656  0.68964958  0.15466671     0.80600
N20         N  0.04132323  0.67215936  0.13546336    -0.77700
C21         C  0.05106518  0.66422148  0.10580635     0.83100
N22         N  0.08055326  0.67300466  0.09608081    -0.77600
C23         C  0.09955802  0.69041557  0.11555075     0.83200
N24         N  0.08886119  0.69868520  0.14442866    -0.79300
C25         C  0.89617902  0.41482487  0.12563066     0.80600
N26         N  0.86459892  0.41401594  0.12228492    -0.77700
C27         C  0.84966872  0.43282912  0.10123814     0.83100
N28         N  0.86668277  0.45349674  0.08342289    -0.77600
C29         C  0.89871098  0.45427601  0.08594571     0.83200
N30         N  0.91343098  0.43491991  0.10725368    -0.79300
C31         C  0.84379861  0.44534521  0.93520932     0.80600
N32         N  0.85352081  0.43332405  0.90736698    -0.77700
C33         C  0.88263366  0.43945018  0.89626256     0.83100
N34         N  0.90293166  0.45733231  0.91375067    -0.77600
C35         C  0.89396277  0.46869745  0.94255140     0.83200
N36         N  0.86391531  0.46333782  0.95277128    -0.79300
C37         C  0.10317124  0.44643978  0.92877773     0.80600
N38         N  0.09048383  0.43484643  0.90188741    -0.77700
C39         C  0.06024493  0.44069701  0.89404850     0.83100
N40         N  0.04177502  0.45807290  0.91383738    -0.77600
C41         C  0.05378369  0.46925030  0.94159606     0.83200
N42         N  0.08473237  0.46380543  0.94866551    -0.79300
C43         C  0.05471314  0.43331141  0.14882410     0.80600
N44         N  0.03853724  0.45562361  0.13171943    -0.77700
C45         C  0.03858690  0.45473125  0.09920768     0.83100
N46         N  0.05525854  0.43173433  0.08420285    -0.77600
C47         C  0.07168966  0.40991185  0.10128012     0.83200
N48         N  0.07108855  0.41107952  0.13308726    -0.79300
O49         O  0.03138114  0.62589880  0.96129678    -0.74900
O50         O  0.00762480  0.66120432  0.99448755    -0.53800
C51         C  0.02520462  0.65425031  0.97054478     0.78800
O52         O  0.90918285  0.52017773  0.95608174    -0.59500
O53         O  0.93662676  0.47945870  0.97893482    -0.52500
C54         C  0.91483073  0.49062955  0.96036016     0.70900
O55         O  0.91892281  0.62453519  0.95645844    -0.74100
O56         O  0.93885348  0.66020503  0.99173747    -0.54600
C57         C  0.92296093  0.65286120  0.96656198     0.76900
O58         O  0.04176133  0.52037154  0.95936860    -0.59200
O59         O  0.01253430  0.47950782  0.97926631    -0.52300
C60         C  0.03476759  0.49087332  0.96158923     0.73400
Zr61       Zr  0.02257349  0.57121904  0.97884744     2.54700
O62         O  0.02843276  0.57311134  0.92161682    -0.79800
O63         O  0.07882170  0.57673260  0.98849388    -0.93200
Zr64       Zr  0.93058728  0.57061698  0.97327348     2.64700
O65         O  0.94047773  0.56965850  0.91661012    -0.98100
O66         O  0.87369348  0.57525418  0.96826692    -0.80200
O67         O  0.97605166  0.60205242  0.97941444    -0.83600
O68         O  0.97694379  0.53935996  0.97269164    -2.18300
O69         O  0.02851487  0.50880374  0.09000199    -0.66900
O70         O  0.00785553  0.47333938  0.05492437    -0.51500
C71         C  0.02374767  0.48046859  0.08019116     0.71800
O72         O  0.90615530  0.61129281  0.08735014    -0.59800
O73         O  0.93485235  0.65249811  0.06744588    -0.51800
C74         C  0.91293825  0.64076401  0.08542652     0.73600
O75         O  0.90822540  0.50786634  0.07637509    -0.71200
O76         O  0.93888542  0.47200473  0.05022751    -0.49900
C77         C  0.91648155  0.47946555  0.06952654     0.75000
O78         O  0.03705918  0.61281342  0.09084738    -0.66600
O79         O  0.01055654  0.65361436  0.06697551    -0.53800
C80         C  0.03157207  0.64238517  0.08642187     0.73400
Zr81       Zr  0.01753922  0.56240574  0.07122651     2.77500
O82         O  0.01235509  0.56367351  0.12852397    -0.97300
O83         O  0.07451743  0.55658869  0.06935848    -0.78100
Zr84       Zr  0.92498665  0.56188050  0.06547585     2.70100
O85         O  0.92488592  0.55628407  0.12276954    -0.79400
O86         O  0.86814725  0.56156709  0.05816208    -0.98500
Zr87       Zr  0.97285520  0.62959792  0.02871596     2.21500
Zr88       Zr  0.97466538  0.50350106  0.01677803     2.11100
O89         O  0.97152149  0.53127764  0.06588663    -2.47200
O90         O  0.97080206  0.59330644  0.07206667    -0.79200
O91         O  0.02104399  0.53527879  0.02223186    -0.71400
O92         O  0.92665197  0.59772071  0.02227250    -2.32300
O93         O  0.01999378  0.59816000  0.02781753    -2.28500
O94         O  0.92789405  0.53505463  0.01661300    -0.73100
H95         H  0.97790506  0.52783039  0.95309942     0.78900
H96         H  0.90800720  0.61080053  0.02225875     0.79900
H97         H  0.97013153  0.51675072  0.08343685     0.82200
H98         H  0.03839438  0.61140755  0.02944703     0.79800
H99         H  0.86663581  0.58390537  0.98876229     0.42800
H100        H  0.86405803  0.54363899  0.04378087     0.41800
H101        H  0.94173325  0.57062569  0.13012648     0.41500
H102        H  0.99838084  0.54572008  0.13373531     0.39400
H103        H  0.08199181  0.57566206  0.05806445     0.42500
H104        H  0.08742914  0.58436534  0.96812365     0.37300
H105        H  0.01135012  0.55955660  0.91338050     0.43400
H106        H  0.91975448  0.57420821  0.90684874     0.39800
H107        H  0.03329230  0.55722706  0.13660559     0.44800
H108        H  0.08676766  0.55483002  0.99051008     0.43500
H109        H  0.95314281  0.58881806  0.91242947     0.43600
H110        H  0.85967050  0.55462180  0.07882736     0.44000
C111        C  0.62879014  0.98958609  0.12801342     0.80600
N112        N  0.60783788  0.00615744  0.11015969    -0.77700
C113        C  0.58489078  0.99093265  0.09378114     0.83100
N114        N  0.58332592  0.95855440  0.09514335    -0.77600
C115        C  0.60480646  0.94178344  0.11271214     0.83200
N116        N  0.62704538  0.95779527  0.12896111    -0.79300
C117        C  0.60123807  0.98917085  0.90096431     0.80600
N118        N  0.62193982  0.97138634  0.91741002    -0.77700
C119        C  0.62403835  0.97253494  0.94914206     0.83100
N120        N  0.60472085  0.99234607  0.96537236    -0.77600
C121        C  0.58335008  0.01058443  0.94951857     0.83200
N122        N  0.58155129  0.00882119  0.91718181    -0.79300
C123        C  0.60486881  0.20390133  0.94261936     0.80600
N124        N  0.62387273  0.18657279  0.92385389    -0.77700
C125        C  0.62305942  0.15470850  0.92417778     0.83100
N126        N  0.60260834  0.13964206  0.94391281    -0.77600
C127        C  0.58267493  0.15652076  0.96265918     0.83200
N128        N  0.58373550  0.18880283  0.96177001    -0.79300
C129        C  0.60156594  0.20317197  0.11396432     0.80600
N130        N  0.58574928  0.18146908  0.09621745    -0.77700
C131        C  0.57673178  0.15342344  0.10942648     0.83100
N132        N  0.58260509  0.14806697  0.14072847    -0.77600
C133        C  0.59841332  0.16979971  0.15839836     0.83200
N134        N  0.60792453  0.19700649  0.14464255    -0.79300
C135        C  0.34863145  0.20296277  0.94687243     0.80600
N136        N  0.32725918  0.18622625  0.93017127    -0.77700
C137        C  0.32692305  0.15435071  0.93055505     0.83100
N138        N  0.34845198  0.13854837  0.94853166    -0.77600
C139        C  0.37052615  0.15471927  0.96533454     0.83200
N140        N  0.37065076  0.18701609  0.96433942    -0.79300
C141        C  0.35724000  0.98781666  0.89865387     0.80600
N142        N  0.33616295  0.96942297  0.91388983    -0.77700
C143        C  0.33338404  0.96940654  0.94561134     0.83100
N144        N  0.35247773  0.98853159  0.96305576    -0.77600
C145        C  0.37446948  0.00694996  0.94834618     0.83200
N146        N  0.37665041  0.00660066  0.91606850    -0.79300
C147        C  0.33786545  0.98669454  0.13668346     0.80600
N148        N  0.33658745  0.95505459  0.13363687    -0.77700
C149        C  0.35393364  0.93965092  0.11179654     0.83100
N150        N  0.37386199  0.95671232  0.09297519    -0.77600
C151        C  0.37537488  0.98889274  0.09578597     0.83200
N152        N  0.35700186  0.00373277  0.11744065    -0.79300
C153        C  0.33238338  0.17822706  0.11325001     0.80600
N154        N  0.33112148  0.17668701  0.14504453    -0.77700
C155        C  0.34864903  0.15589105  0.16174756     0.83100
N156        N  0.36892496  0.13644124  0.14588215    -0.77600
C157        C  0.37038588  0.13746884  0.11349912     0.83200
N158        N  0.35190246  0.15837597  0.09737138    -0.79300
O159        O  0.53197853  0.99943750  0.07885668    -0.74900
O160        O  0.56831898  0.03643669  0.06405382    -0.53800
C161        C  0.56031575  0.00996821  0.07735070     0.78800
O162        O  0.42648197  0.02350609  0.95773070    -0.59500
O163        O  0.38836232  0.04022501  0.99191640    -0.52500
C164        C  0.39771508  0.02502561  0.96716861     0.70900
O165        O  0.53111292  0.02683918  0.95712410    -0.74100
O166        O  0.56793667  0.04350930  0.99293820    -0.54600
C167        C  0.55950055  0.02863105  0.96755671     0.76900
O168        O  0.42766700  0.99842374  0.08031695    -0.59200
O169        O  0.38954136  0.03284351  0.06339902    -0.52300
C170        C  0.39886787  0.00764268  0.07811743     0.73400
Zr171      Zr  0.47938622  0.01969270  0.06704764     2.54700
O172        O  0.48009968  0.96500858  0.04957036    -0.79800
O173        O  0.47960676  0.00841924  0.12356041    -0.93200
Zr174      Zr  0.47862849  0.04008624  0.97585813     2.64700
O175        O  0.48354491  0.98481001  0.96102696    -0.98100
O176        O  0.47689812  0.06059659  0.92203932    -0.80200
O177        O  0.50988725  0.03059214  0.02160016    -0.83600
O178        O  0.44822479  0.02831020  0.02134932    -2.18300
O179        O  0.42307957  0.12169511  0.10635479    -0.66900
O180        O  0.38666593  0.10494960  0.07027377    -0.51500
C181        C  0.39470047  0.11953658  0.09590330     0.71800
O182        O  0.53001610  0.14966621  0.98029674    -0.59800
O183        O  0.56763407  0.11488104  0.99775226    -0.51800
C184        C  0.55871977  0.13958793  0.98196632     0.73600
O185        O  0.42366375  0.14780370  0.98056854    -0.71200
O186        O  0.38735456  0.11176190  0.99780098    -0.49900
C187        C  0.39534410  0.13709841  0.98267023     0.75000
O188        O  0.52650516  0.13308651  0.10110686    -0.66600
O189        O  0.56577749  0.11415358  0.06945484    -0.53800
C190        C  0.55529004  0.13193078  0.09208395     0.73400
Zr191      Zr  0.47600633  0.11086665  0.08637756     2.77500
O192        O  0.47156621  0.16696489  0.09837350    -0.97300
O193        O  0.48057711  0.09472284  0.14152349    -0.78100
Zr194      Zr  0.47703504  0.13080540  0.99511199     2.70100
O195        O  0.47544202  0.18607052  0.01057972    -0.79400
O196        O  0.47768007  0.14208469  0.93862245    -0.98500
Zr197      Zr  0.54026223  0.07678272  0.03204428     2.21500
Zr198      Zr  0.41571901  0.07340549  0.03097315     2.11100
O199        O  0.44550585  0.12044146  0.04035596    -2.47200
O200        O  0.50744118  0.12172007  0.04125777    -0.79200
O201        O  0.44675704  0.06418496  0.07721279    -0.71400
O202        O  0.50891752  0.08579244  0.98563335    -2.32300
O203        O  0.50895763  0.06620234  0.07800553    -2.28500
O204        O  0.44658891  0.08478665  0.98507214    -0.73100
H205        H  0.43570252  0.00965651  0.01776968     0.78900
H206        H  0.52194038  0.08936410  0.96730007     0.79900
H207        H  0.43171132  0.13823120  0.04374826     0.82200
H208        H  0.52215148  0.06307626  0.09634697     0.79800
H209        H  0.45530509  0.06905955  0.91946385     0.42800
H210        H  0.45946486  0.13042648  0.92992389     0.41800
H211        H  0.47180608  0.18559188  0.03367075     0.41500
H212        H  0.45123833  0.17384971  0.08914500     0.39400
H213        H  0.49555400  0.10984522  0.15105742     0.42500
H214        H  0.49842068  0.01939491  0.13186001     0.37300
H215        H  0.48500850  0.95263441  0.06887070     0.43400
H216        H  0.46905354  0.97346340  0.97539068     0.39800
H217        H  0.46828266  0.16778740  0.12151578     0.44800
H218        H  0.48489059  0.98568987  0.12514765     0.43500
H219        H  0.47352472  0.98340299  0.93992643     0.43600
H220        H  0.47161507  0.16461010  0.93690936     0.44000
C221        C  0.10322465  0.96594528  0.65325037     0.80600
N222        N  0.09322654  0.93638002  0.65982517    -0.77700
C223        C  0.06496910  0.92600185  0.64983098     0.83100
N224        N  0.04564069  0.94580396  0.63323657    -0.77600
C225        C  0.05475060  0.97612541  0.62705688     0.83200
N226        N  0.08391867  0.98594452  0.63666113    -0.79300
C227        C  0.85215347  0.96018617  0.65495127     0.80600
N228        N  0.87046308  0.98065532  0.63789774    -0.77700
C229        C  0.89909954  0.97111946  0.62654816     0.83100
N230        N  0.90867983  0.94071935  0.63165430    -0.77600
C231        C  0.89043646  0.92056441  0.64886902     0.83200
N232        N  0.86271694  0.93060075  0.66047810    -0.79300
C233        C  0.89498108  0.17910785  0.66598115     0.80600
N234        N  0.90985683  0.16280726  0.64238453    -0.77700
C235        C  0.90861809  0.13036444  0.64188366     0.83100
N236        N  0.89241825  0.11477163  0.66491472    -0.77600
C237        C  0.87697048  0.13129676  0.68762073     0.83200
N238        N  0.87829348  0.16298389  0.68766708    -0.79300
C239        C  0.04651383  0.18079620  0.66965896     0.80600
N240        N  0.06403774  0.16565155  0.69152580    -0.77700
C241        C  0.06770413  0.13410477  0.69124582     0.83100
N242        N  0.05328773  0.11669745  0.66832215    -0.77600
C243        C  0.03581220  0.13143415  0.64539250     0.83200
N244        N  0.03274628  0.16370130  0.64599436    -0.81700
C245        C  0.89049536  0.17541575  0.39038049     0.80600
N246        N  0.90844205  0.15664766  0.40953860    -0.77700
C247        C  0.89452413  0.13538422  0.42935459     0.83100
N248        N  0.86245795  0.13249747  0.42919916    -0.77600
C249        C  0.84443685  0.15080271  0.40953979     0.83200
N250        N  0.85885744  0.17232141  0.39072907    -0.79300
C251        C  0.87537999  0.98521885  0.37240517     0.80600
N252        N  0.89180500  0.00129212  0.39485632    -0.77700
C253        C  0.90922890  0.98535371  0.41683067     0.83100
N254        N  0.91039103  0.95294954  0.41581533    -0.77600
C255        C  0.89451068  0.93700206  0.39264464     0.83200
N256        N  0.87688015  0.95346513  0.37176418    -0.79300
C257        C  0.08028066  0.98319554  0.37606525     0.80600
N258        N  0.07318107  0.95237262  0.37324206    -0.77700
C259        C  0.05155377  0.93873790  0.39209859     0.83100
N260        N  0.03699978  0.95634070  0.41478474    -0.77600
C261        C  0.04362563  0.98783361  0.41759417     0.83200
N262        N  0.06531351  0.00120982  0.39802778    -0.79300
C263        C  0.06263663  0.19296952  0.40859543     0.80600
N264        N  0.04272557  0.17378956  0.42532961    -0.77700
C265        C  0.05223822  0.14400416  0.43408703     0.83100
N266        N  0.08212669  0.13427539  0.42674442    -0.77600
C267        C  0.10189050  0.15364205  0.41013222     0.83200
N268        N  0.09167293  0.18250393  0.40139420    -0.79300
O269        O  0.91269320  0.98773949  0.57533308    -0.74900
O270        O  0.93738286  0.01218014  0.61666753    -0.53800
C271        C  0.91763173  0.99188740  0.60504406     0.78800
O272        O  0.03582435  0.99802434  0.47169298    -0.59500
O273        O  0.01052412  0.02983639  0.43586461    -0.52500
C274        C  0.02910665  0.00665007  0.44322534     0.70900
O275        O  0.04253257  0.99405489  0.57614009    -0.74100
O276        O  0.01293488  0.01367580  0.61677644    -0.54600
C277        C  0.03542252  0.99616556  0.60555523     0.76900
O278        O  0.91961425  0.99268019  0.47113060    -0.59200
O279        O  0.94127740  0.02796949  0.43625338    -0.52300
C280        C  0.92462655  0.00311703  0.44295041     0.73400
Zr281      Zr  0.93064924  0.00988903  0.52515790     2.54700
O282        O  0.93349295  0.95250453  0.52359554    -0.79800
O283        O  0.87363883  0.01397248  0.52106468    -0.93200
Zr284      Zr  0.02347062  0.01439874  0.52577195     2.64700
O285        O  0.02637853  0.95697610  0.52465843    -0.98100
O286        O  0.07979781  0.02313903  0.51995538    -0.80200
O287        O  0.97702840  0.00817932  0.55657177    -0.83600
O288        O  0.97713284  0.01499381  0.49482214    -2.18300
O289        O  0.90589177  0.11893315  0.48162108    -0.66900
O290        O  0.93766782  0.10098214  0.44189644    -0.51500
C291        C  0.91392125  0.11705231  0.45229315     0.71800
O292        O  0.02733512  0.12329304  0.59053671    -0.59800
O293        O  0.00641100  0.08743791  0.62522496    -0.51800
C294        C  0.02216484  0.11282299  0.61877548     0.73600
O295        O  0.03702633  0.12837913  0.48527012    -0.71200
O296        O  0.01261260  0.10383146  0.44377936    -0.49900
C297        C  0.03235808  0.12415824  0.45550573     0.75000
O298        O  0.91778220  0.12156353  0.58739823    -0.66600
O299        O  0.93966875  0.08708095  0.62306119    -0.53800
C300        C  0.92325202  0.11193791  0.61584878     0.73400
Zr301      Zr  0.92623547  0.10216528  0.53346877     2.77500
O302        O  0.92293980  0.15959069  0.53432391    -0.97300
O303        O  0.86986951  0.09402368  0.53948907    -0.78100
Zr304      Zr  0.01863366  0.10654444  0.53548106     2.70100
O305        O  0.01495721  0.16380745  0.53835033    -0.79400
O306        O  0.07576710  0.10384561  0.53913002    -0.98500
Zr307      Zr  0.97428082  0.05123267  0.59289944     2.21500
Zr308      Zr  0.97548294  0.06434641  0.46700294     2.11100
O309        O  0.97279839  0.10794584  0.50302982    -2.47200
O310        O  0.97212100  0.10045886  0.56518235    -0.79200
O311        O  0.92852054  0.05902454  0.49783719    -0.71400
O312        O  0.02135839  0.05711808  0.56213169    -2.32300
O313        O  0.92754302  0.05295973  0.56087917    -2.28500
O314        O  0.02185139  0.06380862  0.49923995    -0.73100
H315        H  0.97788596  0.99749482  0.48034808     0.78900
H316        H  0.03967275  0.05682897  0.57569095     0.79900
H317        H  0.97205834  0.12767315  0.49148141     0.82200
H318        H  0.90897530  0.05121214  0.57386546     0.79800
H319        H  0.08900225  0.01763509  0.54077379     0.42800
H320        H  0.08261005  0.12617644  0.53901225     0.41800
H321        H  0.99282939  0.16793855  0.54435563     0.41500
H322        H  0.93349032  0.16672537  0.51472544     0.39400
H323        H  0.86153151  0.11502482  0.54538088     0.42500
H324        H  0.86664221  0.99237237  0.51566007     0.37300
H325        H  0.95434778  0.94734150  0.53275172     0.43400
H326        H  0.01191765  0.95058386  0.50745721     0.39800
H327        H  0.90038476  0.16435874  0.53081137     0.44800
H328        H  0.86985436  0.02648001  0.50159021     0.43500
H329        H  0.04767569  0.95220268  0.51650874     0.43600
H330        H  0.08020273  0.09638162  0.56089460     0.44000
C331        C  0.00708663  0.38873234  0.25463591    -0.10500
C332        C  0.98198778  0.38903514  0.23335883    -0.04300
C333        C  0.95941997  0.36546803  0.23246340    -0.10400
C334        C  0.95862359  0.34260661  0.25683385     0.10500
C335        C  0.98268100  0.34275115  0.28037406    -0.02200
C336        C  0.00775368  0.36510572  0.27865639     0.10300
C337        C  0.03244802  0.36301973  0.30078353    -0.12200
C338        C  0.03252684  0.33963049  0.32437798    -0.12200
C339        C  0.00747510  0.31816040  0.32714707     0.10300
C340        C  0.98227002  0.31971054  0.30490002    -0.02200
C341        C  0.93497233  0.31950930  0.25810209    -0.12400
C342        C  0.93409788  0.29744995  0.28270854    -0.12400
C343        C  0.95724842  0.29735150  0.30641122     0.10500
C344        C  0.95662633  0.27522909  0.33150507    -0.10400
C345        C  0.97997797  0.27602793  0.35437817    -0.04300
C346        C  0.00641375  0.29518841  0.35166844    -0.10500
H347        H  0.05176886  0.37963894  0.30001875     0.07800
H348        H  0.05190559  0.33891329  0.34104057     0.07800
H349        H  0.91673910  0.31859693  0.24022606     0.07900
H350        H  0.91517181  0.28037295  0.28306314     0.07900
H351        H  0.98156524  0.40650490  0.21450901     0.04400
H352        H  0.97915723  0.25839323  0.37309359     0.04400
C353        C  0.28068266  0.05376055  0.23667468    -0.10500
C354        C  0.30303817  0.07725445  0.23987897    -0.04300
C355        C  0.30041916  0.10132137  0.26213144    -0.10400
C356        C  0.27540171  0.10015839  0.28430985     0.10500
C357        C  0.25347134  0.07480043  0.28279568    -0.02200
C358        C  0.25581981  0.05177178  0.25846892     0.10300
C359        C  0.23313127  0.02785007  0.25628533    -0.12200
C360        C  0.20869228  0.02602783  0.27801824    -0.12200
C361        C  0.20619875  0.04812945  0.30248364     0.10300
C362        C  0.22854795  0.07295876  0.30493066    -0.02200
C363        C  0.27164768  0.12329583  0.30777099    -0.12400
C364        C  0.24708859  0.12136860  0.32979375    -0.12400
C365        C  0.22542306  0.09633453  0.32892135     0.10500
C366        C  0.20058370  0.09357530  0.35122180    -0.10400
C367        C  0.17995715  0.06822898  0.34878929    -0.04300
C368        C  0.18161069  0.04650121  0.32448477    -0.10500
H369        H  0.23417595  0.01032986  0.23775665     0.07800
H370        H  0.19173285  0.00713588  0.27558010     0.07800
H371        H  0.28802792  0.14277301  0.30945567     0.07900
H372        H  0.24530669  0.13941589  0.34775596     0.07900
H373        H  0.32172133  0.07815285  0.22244615     0.04400
H374        H  0.16032012  0.06642561  0.36510351     0.04400
C375        C  0.17233165  0.35880033  0.03399066    -0.10500
C376        C  0.17239179  0.38257109  0.01124776    -0.04300
C377        C  0.19671132  0.38637035  0.98960941    -0.10400
C378        C  0.22303033  0.36601506  0.99113747     0.10500
C379        C  0.22457280  0.34288630  0.01560506    -0.02200
C380        C  0.19893314  0.33890752  0.03691435     0.10300
C381        C  0.20043374  0.31493941  0.05993059    -0.12200
C382        C  0.22712291  0.29597901  0.06293781    -0.12200
C383        C  0.25290964  0.30002548  0.04265043     0.10300
C384        C  0.25149764  0.32326538  0.01836371    -0.02200
C385        C  0.24765559  0.36807327  0.96913580    -0.12400
C386        C  0.27374230  0.34804286  0.97129487    -0.12400
C387        C  0.27632096  0.32581431  0.99590464     0.10500
C388        C  0.30300902  0.30582660  0.99874635    -0.10400
C389        C  0.30519542  0.28598118  0.02508221    -0.04300
C390        C  0.28000458  0.28103578  0.04531887    -0.10500
H391        H  0.18093832  0.31063940  0.07577717     0.07800
H392        H  0.22740798  0.27802639  0.08123181     0.07800
H393        H  0.24693939  0.38536093  0.95021969     0.07900
H394        H  0.29235402  0.35055372  0.95403057     0.07900
H395        H  0.15216296  0.39820871  0.00965257     0.04400
H396        H  0.32529465  0.27034650  0.02762967     0.04400
C397        C  0.66521005  0.10965863  0.24548014    -0.10500
C398        C  0.66730662  0.08923769  0.21977653    -0.04300
C399        C  0.68964029  0.06531926  0.21824138    -0.10400
C400        C  0.71193334  0.06218939  0.24277712     0.10500
C401        C  0.71019060  0.08257933  0.26938051    -0.02200
C402        C  0.68643785  0.10621144  0.27100407     0.10300
C403        C  0.68448999  0.12531273  0.29798811    -0.12200
C404        C  0.70580586  0.12159698  0.32295559    -0.12200
C405        C  0.73031162  0.09934286  0.32129072     0.10300
C406        C  0.73240599  0.07945981  0.29422900    -0.02200
C407        C  0.73625627  0.03982125  0.24100648    -0.12400
C408        C  0.75885639  0.03764258  0.26476227    -0.12400
C409        C  0.75721296  0.05702273  0.29154557     0.10500
C410        C  0.77999219  0.05514016  0.31566255    -0.10400
C411        C  0.77681944  0.07379943  0.34239869    -0.04300
C412        C  0.75299140  0.09620844  0.34577092    -0.10500
H413        H  0.66624772  0.14306164  0.30002775     0.07800
H414        H  0.70314552  0.13644986  0.34354387     0.07800
H415        H  0.73849522  0.02445680  0.22074121     0.07900
H416        H  0.77769425  0.02066391  0.26195939     0.07900
H417        H  0.65052421  0.09170331  0.20052174     0.04400
H418        H  0.79476487  0.07178404  0.36058931     0.04400
C419        C  0.99821649  0.73014910  0.26423533    -0.10500
C420        C  0.96965352  0.71775048  0.25420222    -0.04300
C421        C  0.94088407  0.72813365  0.26572871    -0.10400
C422        C  0.94026706  0.75059914  0.29038491     0.10500
C423        C  0.96922978  0.76268004  0.30222924    -0.02200
C424        C  0.99832308  0.75337361  0.28827597     0.10300
C425        C  0.02634209  0.76751301  0.29871905    -0.12200
C426        C  0.02601866  0.78997245  0.32287424    -0.12200
C427        C  0.99775892  0.79852641  0.33779747     0.10300
C428        C  0.96902983  0.78489590  0.32731565    -0.02200
C429        C  0.91181094  0.76139337  0.30333394    -0.12400
C430        C  0.91166177  0.78326494  0.32804700    -0.12400
C431        C  0.93995583  0.79495572  0.34062892     0.10500
C432        C  0.94015908  0.81672642  0.36606585    -0.10400
C433        C  0.96898339  0.82622341  0.37855592    -0.04300
C434        C  0.99724555  0.82039293  0.36304848    -0.10500
H435        H  0.04873854  0.76103203  0.28845181     0.07800
H436        H  0.04817156  0.80005877  0.33045326     0.07800
H437        H  0.88950454  0.75262382  0.29463439     0.07900
H438        H  0.88925489  0.79063296  0.33770170     0.07900
H439        H  0.96964340  0.70155738  0.23433915     0.04400
H440        H  0.96893579  0.84392000  0.39702607     0.04400
C441        C  0.26804335  0.07988547  0.83735473    -0.10500
C442        C  0.29366589  0.06014103  0.83247887    -0.04300
C443        C  0.29452283  0.03741505  0.80864991    -0.10400
C444        C  0.26820691  0.03463436  0.78814438     0.10500
C445        C  0.24198293  0.05531245  0.79210903    -0.02200
C446        C  0.24207989  0.07838307  0.81653421     0.10300
C447        C  0.21615560  0.09874821  0.81972392    -0.12200
C448        C  0.19031713  0.09652090  0.79943113    -0.12200
C449        C  0.18929686  0.07341549  0.77576509     0.10300
C450        C  0.21535014  0.05254125  0.77199418    -0.02200
C451        C  0.26733306  0.01204826  0.76388224    -0.12400
C452        C  0.24091741  0.00903730  0.74437631    -0.12400
C453        C  0.21477853  0.02896238  0.74806648     0.10500
C454        C  0.18797627  0.02649032  0.72837697    -0.10400
C455        C  0.16254995  0.04651914  0.73320827    -0.04300
C456        C  0.16272126  0.07004314  0.75593130    -0.10500
H457        H  0.21561050  0.11645070  0.83809453     0.07800
H458        H  0.17075281  0.11255204  0.80283920     0.07800
H459        H  0.28720505  0.99659435  0.75976936     0.07900
H460        H  0.24116458  0.99118458  0.72613064     0.07900
H461        H  0.31317966  0.06180725  0.84896617     0.04400
H462        H  0.14214078  0.04434304  0.71783856     0.04400
C463        C  0.99697364  0.39354640  0.78737740    -0.10500
C464        C  0.96817200  0.40448871  0.79824620    -0.04300
C465        C  0.93954209  0.39286078  0.78752217    -0.10400
C466        C  0.93934433  0.36921833  0.76392703     0.10500
C467        C  0.96850608  0.35868163  0.75105526    -0.02200
C468        C  0.99753386  0.37041500  0.76326440     0.10300
C469        C  0.02595708  0.35870431  0.75110681    -0.12200
C470        C  0.02607578  0.33596327  0.72720928    -0.12200
C471        C  0.99778374  0.32434817  0.71451348     0.10300
C472        C  0.96866089  0.33573770  0.72658659    -0.02200
C473        C  0.91116440  0.35583250  0.75293678    -0.12400
C474        C  0.91138445  0.33289688  0.72922608    -0.12400
C475        C  0.93974982  0.32290578  0.71542820     0.10500
C476        C  0.94019053  0.30031413  0.69074795    -0.10400
C477        C  0.96892616  0.29213091  0.67725071    -0.04300
C478        C  0.99765543  0.30142220  0.69013554    -0.10500
H479        H  0.04829663  0.36729303  0.75989353     0.07800
H480        H  0.04851739  0.32781346  0.71829315     0.07800
H481        H  0.88872798  0.36329525  0.76243226     0.07900
H482        H  0.88909828  0.32349496  0.72117109     0.07900
H483        H  0.96806047  0.42100459  0.81783603     0.04400
H484        H  0.96902457  0.27341646  0.65984134     0.04400
C485        C  0.18944257  0.76074836  0.05557406    -0.10500
C486        C  0.16565725  0.76430165  0.03327581    -0.04300
C487        C  0.16422631  0.78965401  0.01244982    -0.10400
C488        C  0.18889062  0.81197310  0.01209905     0.10500
C489        C  0.21415485  0.80856109  0.03407326    -0.02200
C490        C  0.21423635  0.78312013  0.05632809     0.10300
C491        C  0.23907260  0.78068966  0.07817099    -0.12200
C492        C  0.26368184  0.80263104  0.07813621    -0.12200
C493        C  0.26416417  0.82780732  0.05636740     0.10300
C494        C  0.23910708  0.83085233  0.03404772    -0.02200
C495        C  0.18890352  0.83752703  0.99081609    -0.12400
C496        C  0.21354999  0.85931628  0.99063074    -0.12400
C497        C  0.23881611  0.85636111  0.01188880     0.10500
C498        C  0.26376792  0.87839587  0.01219709    -0.10400
C499        C  0.28814901  0.87447947  0.03368690    -0.04300
C500        C  0.28900250  0.85014159  0.05591050    -0.10500
H501        H  0.23974628  0.76152115  0.09517998     0.07800
H502        H  0.28256212  0.79963646  0.09512088     0.07800
H503        H  0.16979131  0.84078747  0.97414219     0.07900
H504        H  0.21265233  0.87865637  0.97382903     0.07900
H505        H  0.14660579  0.74722266  0.03292350     0.04400
H506        H  0.30687855  0.89188210  0.03360624     0.04400
C507        C  0.72871974  0.41467044  0.99399676    -0.10500
C508        C  0.73795173  0.42689961  0.02305121    -0.04300
C509        C  0.72985534  0.41254430  0.05161459    -0.10400
C510        C  0.70749897  0.38772876  0.05148131     0.10500
C511        C  0.69466942  0.37737782  0.02221232    -0.02200
C512        C  0.70592436  0.39031323  0.99326321     0.10300
C513        C  0.69411590  0.37865753  0.96456682    -0.12200
C514        C  0.67089332  0.35530012  0.96417067    -0.12200
C515        C  0.65943236  0.34212948  0.99244944     0.10300
C516        C  0.67190658  0.35283490  0.02181255    -0.02200
C517        C  0.69799153  0.37280442  0.07963327    -0.12400
C518        C  0.67603487  0.34828840  0.07922094    -0.12400
C519        C  0.66249723  0.33822951  0.05068991     0.10500
C520        C  0.63965423  0.31399707  0.04997107    -0.10400
C521        C  0.62634764  0.30549888  0.02123515    -0.04300
C522        C  0.63601723  0.31829532  0.99245350    -0.10500
H523        H  0.70222122  0.38822862  0.94225195     0.07800
H524        H  0.66180044  0.34771263  0.94152209     0.07800
H525        H  0.70727228  0.38031404  0.10224002     0.07900
H526        H  0.66922678  0.33761711  0.10147797     0.07900
H527        H  0.75653062  0.44443304  0.02313697     0.04400
H528        H  0.61016956  0.28568448  0.02109135     0.04400
C529        C  0.00987898  0.71400249  0.77796007    -0.10500
C530        C  0.98112235  0.70089005  0.78702204    -0.04300
C531        C  0.95237745  0.71341552  0.77718519    -0.10400
C532        C  0.95218260  0.73647599  0.75282842     0.10500
C533        C  0.98122069  0.74817421  0.74079764    -0.02200
C534        C  0.01020281  0.73744949  0.75388113     0.10300
C535        C  0.03849547  0.75101296  0.74322478    -0.12200
C536        C  0.03842621  0.77504946  0.72040999    -0.12200
C537        C  0.01007360  0.78613703  0.70731524     0.10300
C538        C  0.98115827  0.77241722  0.71744499    -0.02200
C539        C  0.92379524  0.74849463  0.74067638    -0.12400
C540        C  0.92371780  0.77193358  0.71740581    -0.12400
C541        C  0.95203426  0.78433079  0.70571684     0.10500
C542        C  0.95216868  0.80880262  0.68292417    -0.10400
C543        C  0.98070664  0.82032955  0.67190337    -0.04300
C544        C  0.00944809  0.81080757  0.68452883    -0.10500
H545        H  0.06089467  0.74302916  0.75256979     0.07800
H546        H  0.06072458  0.78488131  0.71294278     0.07800
H547        H  0.90141930  0.73961262  0.74903746     0.07900
H548        H  0.90128235  0.78041542  0.70861161     0.07900
H549        H  0.98095423  0.68462162  0.80685903     0.04400
H550        H  0.98033273  0.84034721  0.65575158     0.04400
C551        C  0.67954154  0.08041742  0.82850062    -0.10500
C552        C  0.65365933  0.06128575  0.82292496    -0.04300
C553        C  0.65470689  0.03531310  0.80261496    -0.10400
C554        C  0.68229747  0.03032656  0.78444994     0.10500
C555        C  0.70856150  0.05076190  0.78857841    -0.02200
C556        C  0.70727901  0.07580882  0.81090603     0.10300
C557        C  0.73372365  0.09511451  0.81528429    -0.12200
C558        C  0.76098408  0.09035165  0.79767061    -0.12200
C559        C  0.76275017  0.06595557  0.77535988     0.10300
C560        C  0.73650948  0.04554930  0.77108989    -0.02200
C561        C  0.68437769  0.00558218  0.76244680    -0.12400
C562        C  0.71176891  0.00075488  0.74485015    -0.12400
C563        C  0.73801390  0.02038378  0.74888639     0.10500
C564        C  0.76594105  0.01598575  0.73139439    -0.10400
C565        C  0.79158144  0.03547498  0.73694764    -0.04300
C566        C  0.79018929  0.06112861  0.75722833    -0.10500
H567        H  0.73342063  0.11414132  0.83229192     0.07800
H568        H  0.78090203  0.10570362  0.80185276     0.07800
H569        H  0.66456920  0.99005653  0.75842163     0.07900
H570        H  0.71234290  0.98152164  0.72807421     0.07900
H571        H  0.63314909  0.06509366  0.83763090     0.04400
H572        H  0.81254623  0.03196740  0.72273872     0.04400
C573        C  0.75265457  0.75172668  0.05446960    -0.10500
C574        C  0.77434096  0.75358016  0.02988641    -0.04300
C575        C  0.77540194  0.77887139  0.00892412    -0.10400
C576        C  0.75241347  0.80285033  0.01094471     0.10500
C577        C  0.72890637  0.80087465  0.03487969    -0.02200
C578        C  0.72923075  0.77545552  0.05705328     0.10300
C579        C  0.70617169  0.77443694  0.08082449    -0.12200
C580        C  0.68291653  0.79778487  0.08278852    -0.12200
C581        C  0.68200070  0.82295871  0.06108488     0.10300
C582        C  0.70548466  0.82471709  0.03703962    -0.02200
C583        C  0.75257967  0.82881842  0.99026227    -0.12400
C584        C  0.72976181  0.85237980  0.99254953    -0.12400
C585        C  0.70585350  0.85054847  0.01537427     0.10500
C586        C  0.68247329  0.87411070  0.01770043    -0.10400
C587        C  0.65911397  0.87116518  0.04037727    -0.04300
C588        C  0.65821318  0.84648206  0.06225988    -0.10500
H589        H  0.70573141  0.75522229  0.09777914     0.07800
H590        H  0.66537950  0.79583381  0.10121328     0.07800
H591        H  0.77046895  0.83110213  0.97221682     0.07900
H592        H  0.73101588  0.87213625  0.97629351     0.07900
H593        H  0.79257193  0.73567667  0.02813292     0.04400
H594        H  0.64136184  0.88956186  0.04154128     0.04400
C595        C  0.05312626  0.26220508  0.35229139    -0.20900
C596        C  0.03380806  0.28261378  0.36956515    -0.08900
C597        C  0.02976814  0.27645782  0.40218975     0.29900
C598        C  0.03864656  0.24709771  0.41508303    -0.20900
C599        C  0.05361791  0.22454786  0.39615735    -0.09000
C600        C  0.06244408  0.23322012  0.36515033     0.29900
F601        F  0.07741331  0.21240695  0.34605428    -0.19500
H602        H  0.05661680  0.26621628  0.32722128     0.18300
H603        H  0.03299576  0.24164698  0.43944607     0.18300
F604        F  0.01212293  0.29637280  0.41989273    -0.19500
C605        C  0.15128913  0.12105004  0.41627891    -0.20900
C606        C  0.13384876  0.14379460  0.39960095    -0.08900
C607        C  0.14720580  0.15708818  0.37193528     0.29900
C608        C  0.17470415  0.14454529  0.35900996    -0.20900
C609        C  0.18939212  0.11851161  0.37313797    -0.09000
C610        C  0.17951302  0.10929899  0.40373942     0.29900
F611        F  0.19391649  0.08474859  0.41860569    -0.19500
H612        H  0.14238109  0.11131866  0.43820864     0.18300
H613        H  0.18172538  0.15218570  0.33559049     0.18300
F614        F  0.13214698  0.18001482  0.35528911    -0.19500
C615        C  0.10020970  0.02152713  0.33642430    -0.20900
C616        C  0.10563517  0.99579655  0.35649323    -0.08900
C617        C  0.13555385  0.98157162  0.35746741     0.29900
C618        C  0.16066136  0.99545912  0.34150473    -0.20900
C619        C  0.15596243  0.02331928  0.32424363    -0.09000
C620        C  0.12517553  0.03486318  0.31973204     0.29900
F621        F  0.12020372  0.06181397  0.30296032    -0.19500
H622        H  0.07699150  0.03199376  0.33469840     0.18300
H623        H  0.18427773  0.98667028  0.34566444     0.18300
F624        F  0.14111767  0.95610506  0.37627870    -0.19500
C625        C  0.03815782  0.89733007  0.35324089    -0.20900
C626        C  0.04256771  0.90587695  0.38501533    -0.08900
C627        C  0.03902834  0.88287665  0.40863366     0.29900
C628        C  0.02951359  0.85227553  0.40051941    -0.20900
C629        C  0.02175969  0.84469178  0.36896927    -0.09000
C630        C  0.02732632  0.86732650  0.34524446     0.29900
F631        F  0.01846053  0.86195203  0.31488212    -0.19500
H632        H  0.04099039  0.91471662  0.33460282     0.18300
H633        H  0.02476407  0.83546646  0.41927230     0.18300
F634        F  0.04379590  0.89019365  0.43946779    -0.19500
C635        C  0.82699007  0.98565671  0.33913255    -0.20900
C636        C  0.85429467  0.00126754  0.34972479    -0.08900
C637        C  0.86008041  0.03218508  0.33941436     0.29900
C638        C  0.83732113  0.04820303  0.32170888    -0.20900
C639        C  0.80786177  0.03420239  0.31574592    -0.09000
C640        C  0.80374890  0.00206622  0.32243673     0.29900
F641        F  0.77579647  0.98774257  0.31657404    -0.19500
H642        H  0.82232539  0.96148287  0.34610670     0.18300
H643        H  0.84086889  0.07303293  0.31659907     0.18300
F644        F  0.88673450  0.04752859  0.34804530    -0.19500
C645        C  0.90202985  0.88059710  0.41147815    -0.20900
C646        C  0.89838262  0.90258110  0.38682978    -0.08900
C647        C  0.89878054  0.89149469  0.35535142     0.29900
C648        C  0.90617635  0.86013382  0.34875161    -0.20900
C649        C  0.91408516  0.83914715  0.37314366    -0.09000
C650        C  0.90899610  0.84884685  0.40470163     0.29900
F651        F  0.91559994  0.82876732  0.42892465    -0.19500
H652        H  0.90082771  0.88822140  0.43584687     0.18300
H653        H  0.91018095  0.85361716  0.32434327     0.18300
F654        F  0.89552010  0.91167715  0.33053376    -0.19500
C655        C  0.94619401  0.21792445  0.33485515    -0.20900
C656        C  0.93402661  0.24890102  0.33544346    -0.08900
C657        C  0.90556375  0.25447112  0.35115299     0.29900
C658        C  0.89065885  0.22991576  0.36757741    -0.20900
C659        C  0.90463490  0.19980646  0.36970026    -0.09000
C660        C  0.93206413  0.19373185  0.35237742     0.29900
F661        F  0.94584943  0.16481332  0.35337075    -0.19500
H662        H  0.96864013  0.21335844  0.32364604     0.18300
H663        H  0.86938255  0.23505362  0.38064466     0.18300
F664        F  0.89422900  0.28432738  0.35367846    -0.19500
C665        C  0.76793238  0.10610908  0.40163423    -0.20900
C666        C  0.75814954  0.11881629  0.37225571    -0.08900
C667        C  0.76878687  0.14912299  0.36419935     0.29900
C668        C  0.79447788  0.16201244  0.38024073    -0.20900
C669        C  0.81025697  0.14456730  0.40397683    -0.09000
C670        C  0.79489652  0.11797507  0.41666997     0.29900
F671        F  0.80791757  0.10111143  0.44072514    -0.19500
H672        H  0.75921911  0.08322527  0.40905508     0.18300
H673        H  0.80445776  0.18365502  0.37099947     0.18300
F674        F  0.75890591  0.16338419  0.33716075    -0.19500
C675        C  0.03637239  0.23550456  0.64793046    -0.20900
C676        C  0.04175276  0.21533902  0.67374935    -0.08900
C677        C  0.04228326  0.22849466  0.70445120     0.29900
C678        C  0.03343780  0.25982463  0.70931404    -0.20900
C679        C  0.02384938  0.27881384  0.68389476    -0.09000
C680        C  0.02845840  0.26730758  0.65288527     0.29900
F681        F  0.02046456  0.28548900  0.62760738    -0.19500
H682        H  0.03701102  0.22638433  0.62406392     0.18300
H683        H  0.03006321  0.26777608  0.73337889     0.18300
F684        F  0.04809964  0.21035580  0.73036323    -0.19500
C685        C  0.08262349  0.09434443  0.73273434    -0.20900
C686        C  0.09032326  0.12045152  0.71392187    -0.08900
C687        C  0.11998768  0.13481487  0.71766527     0.29900
C688        C  0.14281741  0.12096128  0.73698397    -0.20900
C689        C  0.13639593  0.09274492  0.75298615    -0.09000
C690        C  0.10531056  0.08100879  0.75285282     0.29900
F691        F  0.09829914  0.05410310  0.76886945    -0.19500
H692        H  0.05948860  0.08377927  0.73112660     0.18300
H693        H  0.16658898  0.13015521  0.73637131     0.18300
F694        F  0.12791516  0.16067426  0.70037188    -0.19500
C695        C  0.90229207  0.23522260  0.64655214    -0.20900
C696        C  0.89894427  0.21355474  0.67144612    -0.08900
C697        C  0.89954899  0.22504440  0.70283970     0.29900
C698        C  0.90722058  0.25640439  0.70904276    -0.20900
C699        C  0.91466765  0.27708942  0.68433251    -0.09000
C700        C  0.90917989  0.26702414  0.65294232     0.29900
F701        F  0.91520151  0.28687945  0.62844323    -0.19500
H702        H  0.90081301  0.22734084  0.62227784     0.18300
H703        H  0.91147136  0.26323036  0.73333669     0.18300
F704        F  0.89603919  0.20531338  0.72797209    -0.19500
C705        C  0.82764353  0.12937778  0.71818561    -0.20900
C706        C  0.85711865  0.11602532  0.71143179    -0.08900
C707        C  0.86701115  0.08906199  0.72788687     0.29900
C708        C  0.84651275  0.07433777  0.74906860    -0.20900
C709        C  0.81514944  0.08495145  0.75202191    -0.09000
C710        C  0.80654948  0.11378499  0.73790208     0.29900
F711        F  0.77651721  0.12462119  0.73943406    -0.19500
H712        H  0.81991697  0.15064493  0.70611539     0.18300
H713        H  0.85361375  0.05214126  0.75975182     0.18300
F714        F  0.89580284  0.07629351  0.72248189    -0.19500
C715        C  0.90213615  0.87966744  0.68917759    -0.20900
C716        C  0.90078440  0.88847487  0.65717910    -0.08900
C717        C  0.90798029  0.86614869  0.63395276     0.29900
C718        C  0.91947161  0.83642657  0.64283435    -0.20900
C719        C  0.92492088  0.82916194  0.67493483    -0.09000
C720        C  0.91436020  0.85033544  0.69810118     0.29900
F721        F  0.91981100  0.84450408  0.72922388    -0.19500
H722        H  0.89570452  0.89640163  0.70736834     0.18300
H723        H  0.92774155  0.82054887  0.62462995     0.18300
F724        F  0.90491095  0.87345161  0.60283454    -0.19500
C725        C  0.77796011  0.00583392  0.67577265    -0.20900
C726        C  0.77130571  0.99289778  0.70581584    -0.08900
C727        C  0.78600069  0.96452464  0.71449641     0.29900
C728        C  0.81099302  0.95295013  0.69649208    -0.20900
C729        C  0.82175170  0.96951100  0.66957155    -0.09000
C730        C  0.80374621  0.99497934  0.65826802     0.29900
F731        F  0.81228439  0.01073752  0.63166189    -0.19500
H732        H  0.76687466  0.02779158  0.66862334     0.18300
H733        H  0.82371480  0.93259609  0.70541679     0.18300
F734        F  0.78001825  0.95122314  0.74311219    -0.19500
C735        C  0.17586124  0.01436162  0.67278981    -0.20900
C736        C  0.18255742  0.00276493  0.70339694    -0.08900
C737        C  0.16872419  0.97432088  0.71298028     0.29900
C738        C  0.14447906  0.96120620  0.69502688    -0.20900
C739        C  0.13363073  0.97622548  0.66722883    -0.09000
C740        C  0.15104920  0.00164086  0.65504316     0.29900
F741        F  0.14286152  0.01547399  0.62721927    -0.19500
H742        H  0.18634008  0.03632420  0.66493065     0.18300
H743        H  0.13220039  0.94098199  0.70468654     0.18300
F744        F  0.17454091  0.96248375  0.74229541    -0.19500
C745        C  0.04136743  0.84003032  0.64513148    -0.20900
C746        C  0.03559035  0.83290726  0.67722190    -0.08900
C747        C  0.04363020  0.85549660  0.70012766     0.29900
C748        C  0.05392064  0.88550301  0.69085978    -0.20900
C749        C  0.05558636  0.89373039  0.65872675    -0.09000
C750        C  0.05050163  0.87044802  0.63586402     0.29900
F751        F  0.05327105  0.87741138  0.60464748    -0.19500
H752        H  0.03484969  0.82323061  0.62702952     0.18300
H753        H  0.05875049  0.90302174  0.70881354     0.18300
F754        F  0.03768861  0.85001921  0.73117780    -0.19500
C755        C  0.30300148  0.15342978  0.23835602    -0.20900
C756        C  0.31955481  0.12964165  0.25430611    -0.08900
C757        C  0.35134707  0.12465035  0.24582783     0.29900
C758        C  0.36209959  0.13489739  0.21613058    -0.20900
C759        C  0.34229143  0.15271631  0.19631876    -0.09000
C760        C  0.31389436  0.16460589  0.20926982     0.29900
F761        F  0.29438807  0.18368744  0.19234031    -0.19500
H762        H  0.27895950  0.15875903  0.24498069     0.18300
H763        H  0.38464243  0.12659660  0.20762564     0.18300
F764        F  0.36883122  0.10317576  0.26206661    -0.19500
C765        C  0.28705455  0.22351834  0.05071541    -0.20900
C766        C  0.28301016  0.25285797  0.06570554    -0.08900
C767        C  0.29216737  0.25625107  0.09728108     0.29900
C768        C  0.30693331  0.23120151  0.11294534    -0.20900
C769        C  0.31368627  0.20281357  0.09700433    -0.09000
C770        C  0.30293976  0.19889908  0.06590452     0.29900
F771        F  0.30888078  0.17193267  0.04974652    -0.19500
H772        H  0.28078372  0.22087337  0.02601821     0.18300
H773        H  0.31494829  0.23481243  0.13698175     0.18300
F774        F  0.28967689  0.28462982  0.11186406    -0.19500
C775        C  0.30382217  0.03081094  0.15508249    -0.20900
C776        C  0.31865549  0.00188204  0.16118206    -0.08900
C777        C  0.31503842  0.98742789  0.19101870     0.29900
C778        C  0.29859268  0.00280185  0.21497483    -0.20900
C779        C  0.28546549  0.03261348  0.20947582    -0.09000
C780        C  0.28698049  0.04594551  0.17892008     0.29900
F781        F  0.27490101  0.07512997  0.17319710    -0.19500
H782        H  0.30595875  0.04204264  0.13213352     0.18300
H783        H  0.29854552  0.99275765  0.23857018     0.18300
F784        F  0.32974324  0.95976507  0.19791086    -0.19500
C785        C  0.32067911  0.89215218  0.12225749    -0.20900
C786        C  0.34643192  0.90569978  0.10607301    -0.08900
C787        C  0.35990214  0.88844069  0.08120166     0.29900
C788        C  0.34446744  0.86154074  0.06964912    -0.20900
C789        C  0.31389066  0.85402621  0.08041915    -0.09000
C790        C  0.30417836  0.86680812  0.10929105     0.29900
F791        F  0.27539613  0.85972471  0.12118961    -0.19500
H792        H  0.31044513  0.90370924  0.14257508     0.18300
H793        H  0.35290046  0.85130267  0.04781526     0.18300
F794        F  0.38544947  0.89952592  0.06552627    -0.19500
C795        C  0.33063748  0.97220209  0.84878096    -0.20900
C796        C  0.35389070  0.99069169  0.86367675    -0.08900
C797        C  0.36649937  0.01623618  0.84658467     0.29900
C798        C  0.35100440  0.02682734  0.81914662    -0.20900
C799        C  0.32107559  0.01441973  0.81143581    -0.09000
C800        C  0.31369444  0.98430852  0.82318293     0.29900
F801        F  0.28630171  0.96997176  0.81521254    -0.19500
H802        H  0.32182475  0.95094930  0.85996456     0.18300
H803        H  0.35815985  0.04926805  0.80912040     0.18300
F804        F  0.39045888  0.03368341  0.85854395    -0.19500
C805        C  0.29435612  0.95652609  0.98819688    -0.20900
C806        C  0.30958442  0.94823636  0.96008855    -0.08900
C807        C  0.30146048  0.91943195  0.94538014     0.29900
C808        C  0.28116056  0.89814184  0.96029396    -0.20900
C809        C  0.26842237  0.90511967  0.98992159    -0.09000
C810        C  0.27340217  0.93548287  0.00266040     0.29900
F811        F  0.26141058  0.94292189  0.03139737    -0.19500
H812        H  0.29942897  0.97884872  0.99949670     0.18300
H813        H  0.27827832  0.87477099  0.95039080     0.18300
F814        F  0.31526095  0.91044319  0.91793088    -0.19500
C815        C  0.36448059  0.25630345  0.96796070    -0.20900
C816        C  0.34474816  0.23796081  0.94870785    -0.08900
C817        C  0.31801012  0.25278223  0.93513770     0.29900
C818        C  0.30764158  0.28186052  0.94652311    -0.20900
C819        C  0.32339371  0.29621628  0.97175079    -0.09000
C820        C  0.35448435  0.28614055  0.97827946     0.29900
F821        F  0.37166772  0.30113713  0.00074311    -0.19500
H822        H  0.38602600  0.24644765  0.97754057     0.18300
H823        H  0.28432984  0.28975687  0.93971029     0.18300
F824        F  0.29933532  0.23766934  0.91401502    -0.19500
C825        C  0.27803462  0.13339186  0.85859932    -0.20900
C826        C  0.27129848  0.10161889  0.86457393    -0.08900
C827        C  0.27845724  0.08882742  0.89460866     0.29900
C828        C  0.29534766  0.10650116  0.91671236    -0.20900
C829        C  0.30471113  0.13742376  0.90956532    -0.09000
C830        C  0.29443753  0.15128942  0.88088304     0.29900
F831        F  0.30299407  0.18109207  0.87279242    -0.19500
H832        H  0.27344419  0.14343160  0.83544440     0.18300
H833        H  0.30247429  0.09545878  0.93874169     0.18300
F834        F  0.27255265  0.05794484  0.90094003    -0.19500
C835        C  0.58988112  0.25761091  0.09500270    -0.20900
C836        C  0.61188010  0.23367415  0.10093548    -0.08900
C837        C  0.64410435  0.24020269  0.09751374     0.29900
C838        C  0.65392378  0.26924596  0.08505494    -0.20900
C839        C  0.63173256  0.29234445  0.07645491    -0.09000
C840        C  0.59971340  0.28692058  0.08331060     0.29900
F841        F  0.57767829  0.30874048  0.07515282    -0.19500
H842        H  0.56504624  0.25335942  0.09880997     0.18300
H843        H  0.67854833  0.27254836  0.07939275     0.18300
F844        F  0.66590727  0.21773724  0.10440820    -0.19500
C845        C  0.63653889  0.17697236  0.20265040    -0.20900
C846        C  0.60886251  0.16275794  0.19113249    -0.08900
C847        C  0.59452824  0.13910508  0.20944291     0.29900
C848        C  0.61071233  0.12607657  0.23523719    -0.20900
C849        C  0.64189339  0.13534367  0.24158539    -0.09000
C850        C  0.65297390  0.16341288  0.22792229     0.29900
F851        F  0.68244844  0.17385943  0.23448994    -0.19500
H852        H  0.64758012  0.19615914  0.18984462     0.18300
H853        H  0.60143609  0.10485774  0.24611630     0.18300
F854        F  0.56653886  0.12647461  0.20064866    -0.19500
C855        C  0.58646935  0.25914976  0.95425312    -0.20900
C856        C  0.61033317  0.23850315  0.94449318    -0.08900
C857        C  0.64079258  0.25090155  0.93933339     0.29900
C858        C  0.64830730  0.28127057  0.94956498    -0.20900
C859        C  0.62556694  0.29994662  0.96440413    -0.09000
C860        C  0.59379341  0.29022855  0.96280541     0.29900
F861        F  0.57088543  0.30859365  0.97547707    -0.19500
H862        H  0.56260796  0.25070307  0.95715954     0.18300
H863        H  0.67283892  0.28815365  0.95008621     0.18300
F864        F  0.66448021  0.23256066  0.92818476    -0.19500
C865        C  0.65173970  0.15133250  0.87272301    -0.20900
C866        C  0.64343941  0.13725559  0.90181605    -0.08900
C867        C  0.65399403  0.10651497  0.90842405     0.29900
C868        C  0.67041214  0.08951972  0.88547407    -0.20900
C869        C  0.67589548  0.10252836  0.85530436    -0.09000
C870        C  0.66749351  0.13401667  0.84948642     0.29900
F871        F  0.67169769  0.14692095  0.82037565    -0.19500
H872        H  0.64414785  0.17512263  0.86707710     0.18300
H873        H  0.67621958  0.06501709  0.89014451     0.18300
F874        F  0.64742946  0.09244741  0.93651644    -0.19500
C875        C  0.65301819  0.92147124  0.94959483    -0.20900
C876        C  0.64548699  0.94996201  0.96500439    -0.08900
C877        C  0.65766691  0.95543330  0.99530843     0.29900
C878        C  0.67496683  0.93180818  0.01065084    -0.20900
C879        C  0.67909239  0.90193274  0.99662685    -0.09000
C880        C  0.66932856  0.89751002  0.96532204     0.29900
F881        F  0.67228465  0.86892588  0.95122525    -0.19500
H882        H  0.64420437  0.91664382  0.92607204     0.18300
H883        H  0.68211148  0.93552208  0.03495792     0.18300
F884        F  0.65165529  0.98284708  0.01066276    -0.19500
C885        C  0.58778236  0.01159773  0.84717938    -0.20900
C886        C  0.60422925  0.98956817  0.86582747    -0.08900
C887        C  0.62861369  0.97204672  0.85123181     0.29900
C888        C  0.64178179  0.98280383  0.82303096    -0.20900
C889        C  0.63047852  0.01063096  0.80908795    -0.09000
C890        C  0.59990737  0.02064451  0.81763923     0.29900
F891        F  0.58638368  0.04530793  0.80213723    -0.19500
H892        H  0.56777233  0.02420684  0.85668912     0.18300
H893        H  0.66417765  0.97292040  0.81593113     0.18300
F894        F  0.64295561  0.94746720  0.86613918    -0.19500
C895        C  0.66453904  0.03478710  0.13947148    -0.20900
C896        C  0.65150291  0.00580979  0.14866056    -0.08900
C897        C  0.65831762  0.99362011  0.17898151     0.29900
C898        C  0.67485294  0.01183205  0.20076662    -0.20900
C899        C  0.68516555  0.04213929  0.19257219    -0.09000
C900        C  0.68170517  0.05268221  0.16113547     0.29900
F901        F  0.69212317  0.08171889  0.15244575    -0.19500
H902        H  0.66015073  0.04423491  0.11603473     0.18300
H903        H  0.67684100  0.00353764  0.22495539     0.18300
F904        F  0.64615887  0.96564828  0.18881399    -0.19500
C905        C  0.64578986  0.86344194  0.11600140    -0.20900
C906        C  0.63436067  0.85076892  0.08773137    -0.08900
C907        C  0.60376422  0.85996214  0.07810354     0.29900
C908        C  0.59147751  0.88896763  0.08848349    -0.20900
C909        C  0.60787165  0.90657253  0.11122346    -0.09000
C910        C  0.63239732  0.89110216  0.12804885     0.29900
F911        F  0.64626718  0.90465386  0.15353499    -0.19500
H912        H  0.66825136  0.85565065  0.12538474     0.18300
H913        H  0.57143945  0.89907970  0.07623015     0.18300
F914        F  0.59039729  0.84598457  0.05259691    -0.19500
C915        C  0.02683832  0.43992936  0.23408023    -0.20900
C916        C  0.03401866  0.40881579  0.24422352    -0.08900
C917        C  0.05812918  0.39290155  0.22827135     0.29900
C918        C  0.06771587  0.40358847  0.19852056    -0.20900
C919        C  0.05331572  0.43016166  0.18411397    -0.09000
C920        C  0.03492134  0.44986753  0.20334127     0.29900
F921        F  0.02188855  0.47668439  0.19149258    -0.19500
H922        H  0.00909960  0.45331184  0.24660729     0.18300
H923        H  0.08364009  0.38862606  0.18537810     0.18300
F924        F  0.06724177  0.36362370  0.23778263    -0.19500
C925        C  0.12274828  0.38165228  0.10228505    -0.20900
C926        C  0.09429324  0.38815363  0.08639707    -0.08900
C927        C  0.08964294  0.37610611  0.05595568     0.29900
C928        C  0.11429276  0.36048777  0.04072538    -0.20900
C929        C  0.14436337  0.35855628  0.05489415    -0.09000
C930        C  0.14782453  0.36758617  0.08652998     0.29900
F931        F  0.17645849  0.36699977  0.10078370    -0.19500
H932        H  0.12684099  0.39041406  0.12595649     0.18300
H933        H  0.11117534  0.35364218  0.01626421     0.18300
F934        F  0.06217786  0.38115457  0.04026375    -0.19500
C935        C  0.14909853  0.41002059  0.92343988    -0.20900
C936        C  0.13601780  0.43744380  0.93692594    -0.08900
C937        C  0.15363150  0.45371630  0.95978000     0.29900
C938        C  0.18074509  0.43976134  0.97261540    -0.20900
C939        C  0.18949112  0.40891485  0.96377182    -0.09000
C940        C  0.17585118  0.39595619  0.93659348     0.29900
F941        F  0.18438168  0.36669777  0.92677222    -0.19500
H942        H  0.13686598  0.39748825  0.90485792     0.18300
H943        H  0.19141157  0.45046198  0.99323193     0.18300
F944        F  0.14338096  0.48166958  0.97149039    -0.19500
C945        C  0.04975030  0.39608063  0.85727251    -0.20900
C946        C  0.04855672  0.42859953  0.86361201    -0.08900
C947        C  0.03834672  0.44936857  0.83986768     0.29900
C948        C  0.02710998  0.43751044  0.81116413    -0.20900
C949        C  0.02419988  0.40467751  0.80641655    -0.09000
C950        C  0.03723150  0.38408908  0.82908976     0.29900
F951        F  0.03441834  0.35237146  0.82571278    -0.19500
H952        H  0.05858302  0.37981336  0.87503355     0.18300
H953        H  0.01687006  0.45384216  0.79423491     0.18300
F954        F  0.03830054  0.48100710  0.84485362    -0.19500
C955        C  0.78950277  0.46162882  0.95156622    -0.20900
C956        C  0.81162489  0.43775865  0.94584425    -0.08900
C957        C  0.80221488  0.40604078  0.94817975     0.29900
C958        C  0.77217016  0.39833664  0.95916163    -0.20900
C959        C  0.75088550  0.42212185  0.96784203    -0.09000
C960        C  0.75911594  0.45390179  0.96190806     0.29900
F961        F  0.73897713  0.47749106  0.96979355    -0.19500
H962        H  0.79598250  0.48619649  0.94872155     0.18300
H963        H  0.76681118  0.37381462  0.96410857     0.18300
F964        F  0.82300669  0.38245653  0.94222109    -0.19500
C965        C  0.89911878  0.44814789  0.84046330    -0.20900
C966        C  0.89111025  0.42725361  0.86483566    -0.08900
C967        C  0.88969902  0.39470683  0.85846681     0.29900
C968        C  0.90049696  0.38303146  0.82951024    -0.20900
C969        C  0.91221911  0.40373729  0.80641083    -0.09000
C970        C  0.90872548  0.43657451  0.81110332     0.29900
F971        F  0.91972555  0.45729284  0.78919510    -0.19500
H972        H  0.89901266  0.47338042  0.84454512     0.18300
H973        H  0.90321266  0.35776692  0.82669125     0.18300
F974        F  0.88061286  0.37402358  0.88125534    -0.19500
C975        C  0.89398517  0.39234108  0.18005904    -0.20900
C976        C  0.91045033  0.39592592  0.15137316    -0.08900
C977        C  0.94020229  0.38201883  0.14831095     0.29900
C978        C  0.95395927  0.36667186  0.17421293    -0.20900
C979        C  0.93900543  0.36641255  0.20398647    -0.09000
C980        C  0.90829687  0.37817731  0.20633168     0.29900
F981        F  0.89356065  0.37913617  0.23473553    -0.19500
H982        H  0.87082696  0.40265239  0.18289020     0.18300
H983        H  0.97791846  0.35815322  0.17207076     0.18300
F984        F  0.95645043  0.38434839  0.12081342    -0.19500
C985        C  0.79530390  0.45413629  0.09176117    -0.20900
C986        C  0.81557178  0.42841236  0.09647911    -0.08900
C987        C  0.80323077  0.39761455  0.09553704     0.29900
C988        C  0.77223412  0.39256499  0.08606156    -0.20900
C989        C  0.75290377  0.41806915  0.07752573    -0.09000
C990        C  0.76382410  0.44904184  0.08328701     0.29900
F991        F  0.74542689  0.47430036  0.07599095    -0.19500
H992        H  0.80415371  0.47804877  0.09331283     0.18300
H993        H  0.76481560  0.36856363  0.08147470     0.18300
F994        F  0.82210995  0.37212060  0.10017554    -0.19500
C995        C  0.04128958  0.67800473  0.20917859    -0.20900
C996        C  0.05001333  0.70008745  0.18617196    -0.08900
C997        C  0.04988311  0.73240430  0.19377701     0.29900
C998        C  0.03718214  0.74260107  0.22250498    -0.20900
C999        C  0.02539656  0.72062671  0.24436515    -0.09000
C1000       C  0.02990669  0.68812227  0.23843581     0.29900
F1001       F  0.01893959  0.66623042  0.25917512    -0.19500
H1002       H  0.04238247  0.65297658  0.20412181     0.18300
H1003       H  0.03359310  0.76763921  0.22619401     0.18300
F1004       F  0.05951756  0.75422642  0.17230345    -0.19500
C1005       C  0.17485693  0.70572840  0.06914695    -0.20900
C1006       C  0.18233568  0.73638426  0.07988968    -0.08900
C1007       C  0.16771209  0.74721133  0.10745430     0.29900
C1008       C  0.14210968  0.73079384  0.12001165    -0.20900
C1009       C  0.13068051  0.70312583  0.10551154    -0.09000
C1010       C  0.14863529  0.68955555  0.08124229     0.29900
F1011       F  0.13977934  0.66187861  0.06788005    -0.19500
H1012       H  0.18592799  0.69677795  0.04794750     0.18300
H1013       H  0.12950874  0.74150551  0.13944005     0.18300
F1014       F  0.17429368  0.77642432  0.11874370    -0.19500
C1015       C  0.90940910  0.68593563  0.24078734    -0.20900
C1016       C  0.91380617  0.71851854  0.24590167    -0.08900
C1017       C  0.90371145  0.73988870  0.22248386     0.29900
C1018       C  0.89325064  0.72875868  0.19321022    -0.20900
C1019       C  0.89319126  0.69628054  0.18671875    -0.09000
C1020       C  0.89976382  0.67483459  0.21117207     0.29900
F1021       F  0.89795383  0.64327911  0.20607411    -0.19500
H1022       H  0.91743553  0.66903704  0.25834424     0.18300
H1023       H  0.88700513  0.74558820  0.17487467     0.18300
F1024       F  0.90815271  0.77137826  0.22628221    -0.19500
C1025       C  0.79923703  0.72281398  0.12110623    -0.20900
C1026       C  0.81166576  0.69543998  0.10694476    -0.08900
C1027       C  0.79472839  0.68138901  0.08221554     0.29900
C1028       C  0.76878914  0.69715882  0.06899572    -0.20900
C1029       C  0.76075277  0.72787917  0.07909095    -0.09000
C1030       C  0.77405204  0.73899947  0.10729496     0.29900
F1031       F  0.76655096  0.76805881  0.11841053    -0.19500
H1032       H  0.81102567  0.73371015  0.14097800     0.18300
H1033       H  0.75843402  0.68782449  0.04756166     0.18300
F1034       F  0.80450574  0.65376132  0.06937598    -0.19500
C1035       C  0.90947043  0.67499170  0.84412128    -0.20900
C1036       C  0.90186816  0.70175321  0.86200590    -0.08900
C1037       C  0.90291334  0.73165329  0.84720756     0.29900
C1038       C  0.91508119  0.73490016  0.81668902    -0.20900
C1039       C  0.92605489  0.70849974  0.80005696    -0.09000
C1040       C  0.92076436  0.67822062  0.81314654     0.29900
F1041       F  0.93055473  0.65203564  0.79756487    -0.19500
H1042       H  0.90818404  0.65168574  0.85466697     0.18300
H1043       H  0.91924690  0.75847876  0.80763241     0.18300
F1044       F  0.89557789  0.75826177  0.86339175    -0.19500
C1045       C  0.82105239  0.74954228  0.94055140    -0.20900
C1046       C  0.84997954  0.74372182  0.95586249    -0.08900
C1047       C  0.85604898  0.75836978  0.98487876     0.29900
C1048       C  0.83256074  0.77608571  0.99959180    -0.20900
C1049       C  0.80211755  0.77792593  0.98648269    -0.09000
C1050       C  0.79707922  0.76623210  0.95590830     0.29900
F1051       F  0.76796449  0.76749925  0.94268210    -0.19500
H1052       H  0.81605059  0.73888537  0.91785989     0.18300
H1053       H  0.83679709  0.78469427  0.02330605     0.18300
F1054       F  0.88399246  0.75402051  0.99987041    -0.19500
C1055       C  0.11857378  0.75810528  0.94641585    -0.20900
C1056       C  0.09033449  0.75125793  0.96240062    -0.08900
C1057       C  0.08379783  0.76677300  0.99081038     0.29900
C1058       C  0.10672193  0.78614298  0.00449146    -0.20900
C1059       C  0.13688692  0.78881017  0.99077977    -0.09000
C1060       C  0.14175154  0.77659357  0.96049304     0.29900
F1061       F  0.17047420  0.77849153  0.94665382    -0.19500
H1062       H  0.12389496  0.74695108  0.92405328     0.18300
H1063       H  0.10260880  0.79529929  0.02800230     0.18300
F1064       F  0.05610319  0.76203062  0.00599957    -0.19500
C1065       C  0.04631173  0.67736043  0.84854350    -0.20900
C1066       C  0.04977324  0.70455531  0.86698178    -0.08900
C1067       C  0.05031258  0.73427714  0.85164660     0.29900
C1068       C  0.04311920  0.73681427  0.81958086    -0.20900
C1069       C  0.03520381  0.70997709  0.80207245    -0.09000
C1070       C  0.04011126  0.67997347  0.81605385     0.29900
F1071       F  0.03368302  0.65339032  0.79945287    -0.19500
H1072       H  0.04699222  0.65420693  0.85948377     0.18300
H1073       H  0.03948677  0.76018635  0.80972415     0.18300
F1074       F  0.05436250  0.76141495  0.86813134    -0.19500
loop_ 
_geom_bond_atom_site_label_1 
_geom_bond_atom_site_label_2 
_geom_bond_distance 
_geom_bond_site_symmetry_2 
_ccdc_geom_bond_type 
C1            N2   1.346       .  A
C1            N6   1.366       .  A
C1         C1056   1.475       .  S
N2            C3   1.346       .  A
C3            N4   1.365       .  A
C3         C1066   1.484       .  S
N4            C5   1.370       .  A
C5            N6   1.368       .  A
C5           C51   1.488       .  S
C7            N8   1.367       .  A
C7           N12   1.354       .  A
C7         C1046   1.479       .  S
N8            C9   1.363       .  A
C9           N10   1.367       .  A
C9           C57   1.489       .  S
N10          C11   1.365       .  A
C11          N12   1.354       .  A
C11        C1036   1.487       .  S
C13          N14   1.347       .  A
C13          N18   1.367       .  A
C13        C1019   1.471       .  S
N14          C15   1.350       .  A
C15          N16   1.367       .  A
C15        C1026   1.485       .  S
N16          C17   1.368       .  A
C17          N18   1.368       .  A
C17          C74   1.490       .  S
C19          N20   1.364       .  A
C19          N24   1.348       .  A
C19         C996   1.472       .  S
N20          C21   1.365       .  A
C21          N22   1.372       .  A
C21          C80   1.490       .  S
N22          C23   1.371       .  A
C23          N24   1.352       .  A
C23        C1009   1.491       .  S
C25          N26   1.350       .  A
C25          N30   1.366       .  A
C25         C976   1.477       .  S
N26          C27   1.349       .  A
C27          N28   1.363       .  A
C27         C986   1.475       .  S
N28          C29   1.366       .  A
C29          N30   1.366       .  A
C29          C77   1.480       .  S
C31          N32   1.351       .  A
C31          N36   1.367       .  A
C31         C956   1.476       .  S
N32          C33   1.350       .  A
C33          N34   1.367       .  A
C33         C966   1.474       .  S
N34          C35   1.367       .  A
C35          N36   1.368       .  A
C35          C54   1.491       .  S
C37          N38   1.352       .  A
C37          N42   1.367       .  A
C37         C936   1.486       .  S
N38          C39   1.349       .  A
C39          N40   1.366       .  A
C39         C946   1.473       .  S
N40          C41   1.366       .  A
C41          N42   1.367       .  A
C41          C60   1.488       .  S
C43          N44   1.371       .  A
C43          N48   1.349       .  A
C43         C919   1.500       .  S
N44          C45   1.376       .  A
C45          N46   1.363       .  A
C45          C71   1.490       .  S
N46          C47   1.362       .  A
C47          N48   1.347       .  A
C47         C926   1.474       .  S
O49         Zr61   2.459       .  S
O49          C51   1.291       .  A
O50         Zr87   2.464   1_456  S
O50          C51   1.295       .  A
O52         Zr64   2.437       .  S
O52          C54   1.286       .  A
O53         Zr88   2.494   1_556  S
O53          C54   1.301       .  A
O55         Zr64   2.439       .  S
O55          C57   1.287       .  A
O56         Zr87   2.486   1_556  S
O56          C57   1.299       .  A
O58         Zr61   2.449       .  S
O58          C60   1.288       .  A
O59         Zr88   2.482   1_456  S
O59          C60   1.298       .  A
Zr61         O62   2.436       .  S
Zr61         O63   2.436       .  S
Zr61         O67   2.368   1_455  S
Zr61         O68   2.379   1_455  S
Zr61         O91   2.381   1_556  S
Zr61         O93   2.372   1_556  S
O62         H105   0.990       .  S
O63         H104   0.990       .  S
O63         H108   0.990       .  S
Zr64         O65   2.435       .  S
Zr64         O66   2.434       .  S
Zr64         O68   2.372       .  S
Zr64         O67   2.363       .  S
Zr64         O92   2.380   1_556  S
Zr64         O94   2.371   1_556  S
O65         H106   0.990       .  S
O65         H109   0.990       .  S
O66          H99   0.990       .  S
O67         Zr87   2.398   1_556  S
O68         Zr88   2.403   1_556  S
O68          H95   0.965       .  S
O69         Zr81   2.446       .  S
O69          C71   1.288       .  A
O70         Zr88   2.488   1_455  S
O70          C71   1.300       .  A
O72         Zr84   2.427       .  S
O72          C74   1.284       .  A
O73         Zr87   2.501       .  S
O73          C74   1.302       .  A
O75         Zr84   2.440       .  S
O75          C77   1.287       .  A
O76         Zr88   2.469       .  S
O76          C77   1.295       .  A
O78         Zr81   2.440       .  S
O78          C80   1.287       .  A
O79         Zr87   2.496   1_455  S
O79          C80   1.301       .  A
Zr81         O82   2.435       .  S
Zr81         O83   2.435       .  S
Zr81         O89   2.371   1_455  S
Zr81         O90   2.377   1_455  S
Zr81         O93   2.378       .  S
Zr81         O91   2.379       .  S
O82         H102   0.990   1_455  S
O82         H107   0.990       .  S
O83         H103   0.990       .  S
Zr84         O85   2.434       .  S
Zr84         O86   2.435       .  S
Zr84         O90   2.377       .  S
Zr84         O89   2.363       .  S
Zr84         O94   2.366       .  S
Zr84         O92   2.372       .  S
O85         H101   0.990       .  S
O86         H100   0.990       .  S
O86         H110   0.990       .  S
Zr87         O90   2.390       .  S
Zr87         O92   2.401       .  S
Zr87         O93   2.404   1_655  S
Zr88         O89   2.396       .  S
Zr88         O91   2.400   1_655  S
Zr88         O94   2.393       .  S
O89          H97   0.964       .  S
O92          H96   0.966       .  S
O93          H98   0.966       .  S
C111        N112   1.359   1_565  A
C111        N116   1.349       .  A
C111        C896   1.473   1_565  S
N112        C113   1.360   1_545  A
C113        N114   1.374       .  A
C113        C161   1.488   1_565  S
N114        C115   1.371       .  A
C115        N116   1.352       .  A
C115        C909   1.499       .  S
C117        N118   1.348       .  A
C117        N122   1.367   1_565  A
C117        C886   1.492       .  S
N118        C119   1.346       .  A
C119        N120   1.362       .  A
C119        C876   1.478       .  S
N120        C121   1.365   1_565  A
C121        N122   1.372       .  A
C121        C167   1.483       .  S
C123        N124   1.352       .  A
C123        N128   1.369       .  A
C123        C856   1.487       .  S
N124        C125   1.350       .  A
C125        N126   1.364       .  A
C125        C866   1.483       .  S
N126        C127   1.365       .  A
C127        N128   1.369       .  A
C127        C184   1.490       .  S
C129        N130   1.366       .  A
C129        N134   1.349       .  A
C129        C836   1.471       .  S
N130        C131   1.367       .  A
C131        N132   1.365       .  A
C131        C190   1.484       .  S
N132        C133   1.365       .  A
C133        N134   1.352       .  A
C133        C846   1.482       .  S
C135        N136   1.353       .  A
C135        N140   1.367       .  A
C135        C816   1.494       .  S
N136        C137   1.350       .  A
C137        N138   1.362       .  A
C137        C829   1.482       .  S
N138        C139   1.363       .  A
C139        N140   1.369       .  A
C139        C187   1.482       .  S
C141        N142   1.351       .  A
C141        N146   1.364   1_565  A
C141        C796   1.491       .  S
N142        C143   1.347       .  A
C143        N144   1.365       .  A
C143        C806   1.485       .  S
N144        C145   1.368   1_565  A
C145        N146   1.369       .  A
C145        C164   1.483       .  S
C147        N148   1.348       .  A
C147        N152   1.358   1_565  A
C147        C776   1.471   1_565  S
N148        C149   1.353       .  A
C149        N150   1.369       .  A
C149        C786   1.494       .  S
N150        C151   1.370       .  A
C151        N152   1.360   1_565  A
C151        C170   1.479   1_565  S
C153        N154   1.348       .  A
C153        N158   1.361       .  A
C153        C769   1.475       .  S
N154        C155   1.349       .  A
C155        N156   1.370       .  A
C155        C759   1.493       .  S
N156        C157   1.372       .  A
C157        N158   1.363       .  A
C157        C181   1.485       .  S
O159       Zr171   2.443   1_565  S
O159        C161   1.287   1_565  A
O160       Zr197   2.478       .  S
O160        C161   1.298       .  A
O162       Zr174   2.448       .  S
O162        C164   1.289       .  A
O163       Zr198   2.464   1_556  S
O163        C164   1.294       .  A
O165       Zr174   2.434       .  S
O165        C167   1.286       .  A
O166       Zr197   2.476   1_556  S
O166        C167   1.297       .  A
O168       Zr171   2.443   1_565  S
O168        C170   1.287   1_565  A
O169       Zr198   2.463       .  S
O169        C170   1.295       .  A
Zr171       O172   2.435   1_545  S
Zr171       O173   2.436       .  S
Zr171       O177   2.366       .  S
Zr171       O178   2.367       .  S
Zr171       O201   2.379       .  S
Zr171       O203   2.385       .  S
O172        H215   0.990       .  S
O173        H214   0.990       .  S
O173        H218   0.990   1_545  S
Zr174       O175   2.435   1_545  S
Zr174       O176   2.434       .  S
Zr174       O178   2.372   1_556  S
Zr174       O177   2.377   1_556  S
Zr174       O202   2.364       .  S
Zr174       O204   2.365       .  S
O175        H216   0.990       .  S
O175        H219   0.990       .  S
O176        H209   0.990       .  S
O177       Zr197   2.388       .  S
O178       Zr198   2.392       .  S
O178        H205   0.966       .  S
O179       Zr191   2.448       .  S
O179        C181   1.287       .  A
O180       Zr198   2.469       .  S
O180        C181   1.296       .  A
O182       Zr194   2.472       .  S
O182        C184   1.293       .  A
O183       Zr197   2.461   1_556  S
O183        C184   1.295       .  A
O185       Zr194   2.455       .  S
O185        C187   1.290       .  A
O186       Zr198   2.455   1_556  S
O186        C187   1.294       .  A
O188       Zr191   2.426       .  S
O188        C190   1.283       .  A
O189       Zr197   2.491       .  S
O189        C190   1.300       .  A
Zr191       O192   2.439       .  S
Zr191       O193   2.436       .  S
Zr191       O199   2.370       .  S
Zr191       O200   2.376       .  S
Zr191       O203   2.380       .  S
Zr191       O201   2.370       .  S
O192        H212   0.990       .  S
O192        H217   0.990       .  S
O193        H213   0.990       .  S
Zr194       O195   2.434   1_556  S
Zr194       O196   2.435       .  S
Zr194       O200   2.368   1_556  S
Zr194       O199   2.379   1_556  S
Zr194       O204   2.381       .  S
Zr194       O202   2.373       .  S
O195        H211   0.990       .  S
O196        H210   0.990       .  S
O196        H220   0.990       .  S
Zr197       O200   2.392       .  S
Zr197       O202   2.399   1_554  S
Zr197       O203   2.400       .  S
Zr198       O199   2.396       .  S
Zr198       O201   2.387       .  S
Zr198       O204   2.394   1_554  S
O199        H207   0.965       .  S
O202        H206   0.965       .  S
O203        H208   0.965       .  S
C221        N222   1.351       .  A
C221        N226   1.369       .  A
C221        C739   1.487       .  S
N222        C223   1.347       .  A
C223        N224   1.364       .  A
C223        C749   1.472       .  S
N224        C225   1.366       .  A
C225        N226   1.370       .  A
C225        C277   1.487       .  S
C227        N228   1.370       .  A
C227        N232   1.350       .  A
C227        C729   1.487       .  S
N228        C229   1.370       .  A
C229        N230   1.366       .  A
C229        C271   1.490       .  S
N230        C231   1.364       .  A
C231        N232   1.346       .  A
C231        C716   1.469       .  S
C233        N234   1.371       .  A
C233        N238   1.346       .  A
C233        C696   1.488       .  S
N234        C235   1.376       .  A
C235        N236   1.363       .  A
C235        C300   1.489       .  S
N236        C237   1.360       .  A
C237        N238   1.344       .  A
C237        C706   1.465       .  S
C239        N240   1.346       .  A
C239        N244   1.369       .  A
C239        C676   1.488       .  S
N240        C241   1.345       .  A
C241        N242   1.365       .  A
C241        C686   1.472       .  S
N242        C243   1.368       .  A
C243        N244   1.373       .  A
C243        C294   1.494       .  S
C245        N246   1.364       .  A
C245        N250   1.351       .  A
C245        C659   1.480       .  S
N246        C247   1.364       .  A
C247        N248   1.369       .  A
C247        C291   1.487       .  S
N248        C249   1.367       .  A
C249        N250   1.356       .  A
C249        C669   1.495       .  S
C251        N252   1.363   1_565  A
C251        N256   1.347       .  A
C251        C636   1.475   1_565  S
N252        C253   1.363   1_545  A
C253        N254   1.374       .  A
C253        C280   1.490   1_565  S
N254        C255   1.370       .  A
C255        N256   1.348       .  A
C255        C646   1.489       .  S
C257        N258   1.346       .  A
C257        N262   1.363   1_565  A
C257        C616   1.461       .  S
N258        C259   1.348       .  A
C259        N260   1.366       .  A
C259        C626   1.476       .  S
N260        C261   1.369       .  A
C261        N262   1.363   1_565  A
C261        C274   1.483   1_565  S
C263        N264   1.370       .  A
C263        N268   1.347       .  A
C263        C599   1.485       .  S
N264        C265   1.373       .  A
C265        N266   1.372       .  A
C265        C297   1.497       .  S
N266        C267   1.368       .  A
C267        N268   1.347       .  A
C267        C606   1.490       .  S
O269       Zr281   2.442   1_565  S
O269        C271   1.287       .  A
O270       Zr307   2.492       .  S
O270        C271   1.300   1_545  A
O272       Zr284   2.451   1_565  S
O272        C274   1.288   1_565  A
O273       Zr308   2.472   1_455  S
O273        C274   1.296       .  A
O275       Zr284   2.432   1_565  S
O275        C277   1.285       .  A
O276       Zr307   2.494   1_455  S
O276        C277   1.301   1_545  A
O278       Zr281   2.447   1_565  S
O278        C280   1.288   1_565  A
O279       Zr308   2.489       .  S
O279        C280   1.300       .  A
Zr281       O282   2.435   1_545  S
Zr281       O283   2.435       .  S
Zr281       O287   2.376       .  S
Zr281       O288   2.368       .  S
Zr281       O311   2.378       .  S
Zr281       O313   2.378       .  S
O282        H325   0.990       .  S
O283        H324   0.990   1_545  S
O283        H328   0.990       .  S
Zr284       O285   2.436   1_545  S
Zr284       O286   2.436       .  S
Zr284       O288   2.362   1_455  S
Zr284       O287   2.382   1_455  S
Zr284       O312   2.382       .  S
Zr284       O314   2.372       .  S
O285        H326   0.990       .  S
O285        H329   0.990       .  S
O286        H319   0.990       .  S
O287       Zr307   2.393       .  S
O288       Zr308   2.396       .  S
O288        H315   0.964   1_545  S
O289       Zr301   2.457       .  S
O289        C291   1.290       .  A
O290       Zr308   2.468       .  S
O290        C291   1.295       .  A
O292       Zr304   2.465       .  S
O292        C294   1.292       .  A
O293       Zr307   2.470   1_455  S
O293        C294   1.296       .  A
O295       Zr304   2.444       .  S
O295        C297   1.288       .  A
O296       Zr308   2.501   1_455  S
O296        C297   1.302       .  A
O298       Zr301   2.455       .  S
O298        C300   1.290       .  A
O299       Zr307   2.473       .  S
O299        C300   1.297       .  A
Zr301       O302   2.437       .  S
Zr301       O303   2.435       .  S
Zr301       O309   2.376       .  S
Zr301       O310   2.365       .  S
Zr301       O313   2.381       .  S
Zr301       O311   2.376       .  S
O302        H322   0.990       .  S
O302        H327   0.990       .  S
O303        H323   0.990       .  S
Zr304       O305   2.434       .  S
Zr304       O306   2.435       .  S
Zr304       O310   2.359   1_455  S
Zr304       O309   2.381   1_455  S
Zr304       O314   2.381       .  S
Zr304       O312   2.376       .  S
O305        H321   0.990   1_455  S
O306        H320   0.990       .  S
O306        H330   0.990       .  S
Zr307       O310   2.389       .  S
Zr307       O312   2.402   1_655  S
Zr307       O313   2.402       .  S
Zr308       O309   2.402       .  S
Zr308       O311   2.397       .  S
Zr308       O314   2.394   1_655  S
O309        H317   0.967       .  S
O312        H316   0.966       .  S
O313        H318   0.965       .  S
C331        C916   1.493       .  S
C331        C332   1.394   1_455  A
C331        C336   1.423       .  A
C332        C333   1.386       .  A
C332        H351   1.086       .  S
C333        C979   1.483       .  S
C333        C334   1.412       .  A
C334        C335   1.426       .  A
C334        C341   1.405       .  A
C335        C336   1.429   1_655  A
C335        C340   1.422       .  A
C336        C337   1.407       .  A
C337        C338   1.403       .  A
C337        H347   1.083       .  S
C338        C339   1.406       .  A
C338        H348   1.083       .  S
C339        C340   1.426   1_455  A
C339        C346   1.420       .  A
C340        C343   1.427       .  A
C341        C342   1.397       .  A
C341        H349   1.082       .  S
C342        C343   1.403       .  A
C342        H350   1.083       .  S
C343        C344   1.413       .  A
C344        C656   1.482       .  S
C344        C345   1.385       .  A
C345        C346   1.392   1_655  A
C345        H352   1.087       .  S
C346        C596   1.484       .  S
C353        C779   1.475       .  S
C353        C354   1.384       .  A
C353        C358   1.406       .  A
C354        C355   1.395       .  A
C354        H373   1.086       .  S
C355        C756   1.487       .  S
C355        C356   1.421       .  A
C356        C357   1.425       .  A
C356        C363   1.407       .  A
C357        C358   1.425       .  A
C357        C362   1.418       .  A
C358        C359   1.403       .  A
C359        C360   1.391       .  A
C359        H369   1.083       .  S
C360        C361   1.403       .  A
C360        H370   1.083       .  S
C361        C362   1.422       .  A
C361        C368   1.403       .  A
C362        C365   1.427       .  A
C363        C364   1.403       .  A
C363        H371   1.083       .  S
C364        C365   1.406       .  A
C364        H372   1.083       .  S
C365        C366   1.422       .  A
C366        C609   1.487       .  S
C366        C367   1.391       .  A
C367        C368   1.385       .  A
C367        H374   1.087       .  S
C368        C619   1.468       .  S
C375        C929   1.483       .  S
C375        C376   1.390       .  A
C375        C380   1.414       .  A
C376        C377   1.391   1_554  A
C376        H395   1.086       .  S
C377        C939   1.480       .  S
C377        C378   1.412       .  A
C378        C379   1.424   1_556  A
C378        C385   1.405       .  A
C379        C380   1.426       .  A
C379        C384   1.417       .  A
C380        C381   1.405       .  A
C381        C382   1.394       .  A
C381        H391   1.082       .  S
C382        C383   1.404       .  A
C382        H392   1.083       .  S
C383        C384   1.421       .  A
C383        C390   1.408       .  A
C384        C387   1.425   1_554  A
C385        C386   1.398       .  A
C385        H393   1.083       .  S
C386        C387   1.405       .  A
C386        H394   1.083       .  S
C387        C388   1.419       .  A
C388        C819   1.493       .  S
C388        C389   1.396   1_556  A
C389        C390   1.388       .  A
C389        H396   1.085       .  S
C390        C766   1.475       .  S
C397        C849   1.479       .  S
C397        C398   1.395       .  A
C397        C402   1.412       .  A
C398        C399   1.389       .  A
C398        H417   1.086       .  S
C399        C899   1.479       .  S
C399        C400   1.409       .  A
C400        C401   1.424       .  A
C400        C407   1.403       .  A
C401        C402   1.422       .  A
C401        C406   1.417       .  A
C402        C403   1.405       .  A
C403        C404   1.398       .  A
C403        H413   1.083       .  S
C404        C405   1.406       .  A
C404        H414   1.083       .  S
C405        C406   1.427       .  A
C405        C412   1.419       .  A
C406        C409   1.423       .  A
C407        C408   1.391       .  A
C407        H415   1.083       .  S
C408        C409   1.404       .  A
C408        H416   1.082       .  S
C409        C410   1.407       .  A
C410        C639   1.479       .  S
C410        C411   1.389       .  A
C411        C412   1.395       .  A
C411        H418   1.085       .  S
C412        C666   1.493       .  S
C419        C999   1.486   1_655  S
C419        C420   1.390       .  A
C419        C424   1.418       .  A
C420        C421   1.389       .  A
C420        H439   1.087       .  S
C421       C1016   1.481       .  S
C421        C422   1.415       .  A
C422        C423   1.425       .  A
C422        C429   1.405       .  A
C423        C424   1.427       .  A
C423        C428   1.421       .  A
C424        C425   1.405   1_655  A
C425        C426   1.399       .  A
C425        H435   1.083       .  S
C426        C427   1.406   1_455  A
C426        H436   1.083       .  S
C427        C428   1.422       .  A
C427        C434   1.417       .  A
C428        C431   1.425       .  A
C429        C430   1.400       .  A
C429        H437   1.083       .  S
C430        C431   1.406       .  A
C430        H438   1.083       .  S
C431        C432   1.420       .  A
C432        C649   1.490       .  S
C432        C433   1.394       .  A
C433        C434   1.392       .  A
C433        H440   1.085       .  S
C434        C629   1.487   1_655  S
C441        C826   1.484       .  S
C441        C442   1.388       .  A
C441        C446   1.412       .  A
C442        C443   1.397       .  A
C442        H461   1.085       .  S
C443        C799   1.494       .  S
C443        C444   1.419       .  A
C444        C445   1.427       .  A
C444        C451   1.407       .  A
C445        C446   1.425       .  A
C445        C450   1.420       .  A
C446        C447   1.405       .  A
C447        C448   1.396       .  A
C447        H457   1.082       .  S
C448        C449   1.404       .  A
C448        H458   1.083       .  S
C449        C450   1.426       .  A
C449        C456   1.413       .  A
C450        C453   1.425       .  A
C451        C452   1.398       .  A
C451        H459   1.083   1_545  S
C452        C453   1.403       .  A
C452        H460   1.083   1_545  S
C453        C454   1.414       .  A
C454        C736   1.479       .  S
C454        C455   1.389       .  A
C455        C456   1.387       .  A
C455        H462   1.087       .  S
C456        C689   1.479       .  S
C463        C949   1.487   1_655  S
C463        C464   1.388       .  A
C463        C468   1.418       .  A
C464        C465   1.389       .  A
C464        H483   1.087       .  S
C465        C969   1.485       .  S
C465        C466   1.417       .  A
C466        C467   1.427       .  A
C466        C473   1.405       .  A
C467        C468   1.427       .  A
C467        C472   1.423       .  A
C468        C469   1.405   1_655  A
C469        C470   1.399       .  A
C469        H479   1.083       .  S
C470        C471   1.406   1_455  A
C470        H480   1.083       .  S
C471        C472   1.424       .  A
C471        C478   1.420       .  A
C472        C475   1.425       .  A
C473        C474   1.399       .  A
C473        H481   1.083       .  S
C474        C475   1.406       .  A
C474        H482   1.083       .  S
C475        C476   1.419       .  A
C476        C699   1.491       .  S
C476        C477   1.393       .  A
C477        C478   1.394       .  A
C477        H484   1.084       .  S
C478        C679   1.492   1_655  S
C485       C1006   1.486       .  S
C485        C486   1.389       .  A
C485        C490   1.419       .  A
C486        C487   1.387       .  A
C486        H505   1.087       .  S
C487       C1059   1.479   1_554  S
C487        C488   1.413       .  A
C488        C489   1.425       .  A
C488        C495   1.405   1_554  A
C489        C490   1.428       .  A
C489        C494   1.421       .  A
C490        C491   1.405       .  A
C491        C492   1.400       .  A
C491        H501   1.083       .  S
C492        C493   1.406       .  A
C492        H502   1.083       .  S
C493        C494   1.427       .  A
C493        C500   1.419       .  A
C494        C497   1.428       .  A
C495        C496   1.397       .  A
C495        H503   1.083       .  S
C496        C497   1.404   1_556  A
C496        H504   1.083       .  S
C497        C498   1.414       .  A
C498        C809   1.484   1_554  S
C498        C499   1.386       .  A
C499        C500   1.393       .  A
C499        H506   1.086       .  S
C500        C789   1.489       .  S
C507        C959   1.488       .  S
C507        C508   1.392   1_556  A
C507        C512   1.417       .  A
C508        C509   1.395       .  A
C508        H527   1.085       .  S
C509        C989   1.488       .  S
C509        C510   1.418       .  A
C510        C511   1.423       .  A
C510        C517   1.406       .  A
C511        C512   1.424   1_554  A
C511        C516   1.421       .  A
C512        C513   1.404       .  A
C513        C514   1.399       .  A
C513        H523   1.083       .  S
C514        C515   1.406       .  A
C514        H524   1.083       .  S
C515        C516   1.426   1_556  A
C515        C522   1.419       .  A
C516        C519   1.425       .  A
C517        C518   1.397       .  A
C517        H525   1.083       .  S
C518        C519   1.404       .  A
C518        H526   1.083       .  S
C519        C520   1.414       .  A
C520        C839   1.485       .  S
C520        C521   1.389       .  A
C521        C522   1.394   1_554  A
C521        H528   1.086       .  S
C522        C859   1.489       .  S
C529       C1069   1.490       .  S
C529        C530   1.397   1_455  A
C529        C534   1.420       .  A
C530        C531   1.393       .  A
C530        H549   1.084       .  S
C531       C1039   1.495       .  S
C531        C532   1.417       .  A
C532        C533   1.425       .  A
C532        C539   1.404       .  A
C533        C534   1.422   1_655  A
C533        C538   1.422       .  A
C534        C535   1.408       .  A
C535        C536   1.400       .  A
C535        H545   1.083       .  S
C536        C537   1.404       .  A
C536        H546   1.083       .  S
C537        C538   1.426   1_455  A
C537        C544   1.419       .  A
C538        C541   1.423       .  A
C539        C540   1.395       .  A
C539        H547   1.083       .  S
C540        C541   1.404       .  A
C540        H548   1.083       .  S
C541        C542   1.413       .  A
C542        C719   1.480       .  S
C542        C543   1.389       .  A
C543        C544   1.391   1_655  A
C543        H550   1.087       .  S
C544        C746   1.486       .  S
C551        C869   1.482       .  S
C551        C552   1.388       .  A
C551        C556   1.409       .  A
C552        C553   1.400       .  A
C552        H571   1.084       .  S
C553        C889   1.494       .  S
C553        C554   1.420       .  A
C554        C555   1.425       .  A
C554        C561   1.408       .  A
C555        C556   1.425       .  A
C555        C560   1.418       .  A
C556        C557   1.403       .  A
C557        C558   1.394       .  A
C557        H567   1.083       .  S
C558        C559   1.405       .  A
C558        H568   1.083       .  S
C559        C560   1.424       .  A
C559        C566   1.412       .  A
C560        C563   1.425       .  A
C561        C562   1.399       .  A
C561        H569   1.083   1_545  S
C562        C563   1.403       .  A
C562        H570   1.083   1_545  S
C563        C564   1.413       .  A
C564        C726   1.479   1_545  S
C564        C565   1.388       .  A
C565        C566   1.389       .  A
C565        H572   1.086       .  S
C566        C709   1.482       .  S
C573       C1029   1.487       .  S
C573        C574   1.393       .  A
C573        C578   1.418       .  A
C574        C575   1.389       .  A
C574        H593   1.086       .  S
C575       C1049   1.482   1_554  S
C575        C576   1.411       .  A
C576        C577   1.426       .  A
C576        C583   1.403   1_554  A
C577        C578   1.425       .  A
C577        C582   1.420       .  A
C578        C579   1.406       .  A
C579        C580   1.400       .  A
C579        H589   1.083       .  S
C580        C581   1.405       .  A
C580        H590   1.083       .  S
C581        C582   1.429       .  A
C581        C588   1.419       .  A
C582        C585   1.425       .  A
C583        C584   1.394       .  A
C583        H591   1.083       .  S
C584        C585   1.405   1_556  A
C584        H592   1.082       .  S
C585        C586   1.411       .  A
C586        C879   1.481   1_554  S
C586        C587   1.388       .  A
C587        C588   1.394       .  A
C587        H594   1.085       .  S
C588        C906   1.493       .  S
C595        C596   1.400       .  A
C595        C600   1.397       .  A
C595        H602   1.084       .  S
C596        C597   1.414       .  A
C597        C598   1.407       .  A
C597        F604   1.357       .  S
C598        C599   1.402       .  A
C598        H603   1.083       .  S
C599        C600   1.412       .  A
C600        F601   1.357       .  S
C605        C606   1.402       .  A
C605        C610   1.404       .  A
C605        H612   1.083       .  S
C606        C607   1.417       .  A
C607        C608   1.397       .  A
C607        F614   1.356       .  S
C608        C609   1.398       .  A
C608        H613   1.084       .  S
C609        C610   1.415       .  A
C610        F611   1.357       .  S
C615        C616   1.397   1_545  A
C615        C620   1.395       .  A
C615        H622   1.083       .  S
C616        C617   1.407       .  A
C617        C618   1.394       .  A
C617        F624   1.358       .  S
C618        C619   1.399   1_565  A
C618        H623   1.084       .  S
C619        C620   1.408       .  A
C620        F621   1.358       .  S
C625        C626   1.406       .  A
C625        C630   1.395       .  A
C625        H632   1.084       .  S
C626        C627   1.401       .  A
C627        C628   1.402       .  A
C627        F634   1.357       .  S
C628        C629   1.413       .  A
C628        H633   1.083       .  S
C629        C630   1.406       .  A
C630        F631   1.358       .  S
C635        C636   1.410   1_565  A
C635        C640   1.396   1_565  A
C635        H642   1.083       .  S
C636        C637   1.401       .  A
C637        C638   1.395       .  A
C637        F644   1.357       .  S
C638        C639   1.409       .  A
C638        H643   1.084       .  S
C639        C640   1.401       .  A
C640        F641   1.358   1_545  S
C645        C646   1.403       .  A
C645        C650   1.407       .  A
C645        H652   1.083       .  S
C646        C647   1.414       .  A
C647        C648   1.394       .  A
C647        F654   1.358       .  S
C648        C649   1.399       .  A
C648        H653   1.084       .  S
C649        C650   1.416       .  A
C650        F651   1.358       .  S
C655        C656   1.410       .  A
C655        C660   1.399       .  A
C655        H662   1.084       .  S
C656        C657   1.402       .  A
C657        C658   1.402       .  A
C657        F664   1.357       .  S
C658        C659   1.408       .  A
C658        H663   1.083       .  S
C659        C660   1.402       .  A
C660        F661   1.357       .  S
C665        C666   1.414       .  A
C665        C670   1.404       .  A
C665        H672   1.084       .  S
C666        C667   1.403       .  A
C667        C668   1.397       .  A
C667        F674   1.357       .  S
C668        C669   1.412       .  A
C668        H673   1.083       .  S
C669        C670   1.408       .  A
C670        F671   1.357       .  S
C675        C676   1.402       .  A
C675        C680   1.405       .  A
C675        H682   1.083       .  S
C676        C677   1.416       .  A
C677        C678   1.395       .  A
C677        F684   1.358       .  S
C678        C679   1.400       .  A
C678        H683   1.083       .  S
C679        C680   1.415       .  A
C680        F681   1.357       .  S
C685        C686   1.399       .  A
C685        C690   1.401       .  A
C685        H692   1.083       .  S
C686        C687   1.410       .  A
C687        C688   1.394       .  A
C687        F694   1.358       .  S
C688        C689   1.399       .  A
C688        H693   1.084       .  S
C689        C690   1.412       .  A
C690        F691   1.357       .  S
C695        C696   1.402       .  A
C695        C700   1.406       .  A
C695        H702   1.083       .  S
C696        C697   1.417       .  A
C697        C698   1.394       .  A
C697        F704   1.358       .  S
C698        C699   1.398       .  A
C698        H703   1.084       .  S
C699        C700   1.415       .  A
C700        F701   1.357       .  S
C705        C706   1.404       .  A
C705        C710   1.392       .  A
C705        H712   1.084       .  S
C706        C707   1.399       .  A
C707        C708   1.397       .  A
C707        F714   1.357       .  S
C708        C709   1.412       .  A
C708        H713   1.084       .  S
C709        C710   1.405       .  A
C710        F711   1.357       .  S
C715        C716   1.404       .  A
C715        C720   1.396       .  A
C715        H722   1.084       .  S
C716        C717   1.401       .  A
C717        C718   1.399       .  A
C717        F724   1.357       .  S
C718        C719   1.410       .  A
C718        H723   1.083       .  S
C719        C720   1.405       .  A
C720        F721   1.358       .  S
C725        C726   1.411   1_545  A
C725        C730   1.402   1_545  A
C725        H732   1.084       .  S
C726        C727   1.401       .  A
C727        C728   1.398       .  A
C727        F734   1.358       .  S
C728        C729   1.412       .  A
C728        H733   1.083       .  S
C729        C730   1.403       .  A
C730        F731   1.357   1_565  S
C735        C736   1.411       .  A
C735        C740   1.403       .  A
C735        H742   1.083       .  S
C736        C737   1.400   1_545  A
C737        C738   1.396       .  A
C737        F744   1.358       .  S
C738        C739   1.411       .  A
C738        H743   1.083       .  S
C739        C740   1.405   1_565  A
C740        F741   1.357       .  S
C745        C746   1.412       .  A
C745        C750   1.401       .  A
C745        H752   1.083       .  S
C746        C747   1.407       .  A
C747        C748   1.400       .  A
C747        F754   1.357       .  S
C748        C749   1.404       .  A
C748        H753   1.084       .  S
C749        C750   1.401       .  A
C750        F751   1.357       .  S
C755        C756   1.398       .  A
C755        C760   1.397       .  A
C755        H762   1.084       .  S
C756        C757   1.415       .  A
C757        C758   1.405       .  A
C757        F764   1.357       .  S
C758        C759   1.404       .  A
C758        H763   1.083       .  S
C759        C760   1.419       .  A
C760        F761   1.358       .  S
C765        C766   1.408       .  A
C765        C770   1.395       .  A
C765        H772   1.084       .  S
C766        C767   1.399       .  A
C767        C768   1.396       .  A
C767        F774   1.358       .  S
C768        C769   1.411       .  A
C768        H773   1.083       .  S
C769        C770   1.402       .  A
C770        F771   1.357       .  S
C775        C776   1.400       .  A
C775        C780   1.396       .  A
C775        H782   1.083       .  S
C776        C777   1.409   1_545  A
C777        C778   1.395   1_565  A
C777        F784   1.357       .  S
C778        C779   1.398       .  A
C778        H783   1.083   1_545  S
C779        C780   1.410       .  A
C780        F781   1.358       .  S
C785        C786   1.414       .  A
C785        C790   1.397       .  A
C785        H792   1.083       .  S
C786        C787   1.406       .  A
C787        C788   1.405       .  A
C787        F794   1.357       .  S
C788        C789   1.414       .  A
C788        H793   1.084       .  S
C789        C790   1.401       .  A
C790        F791   1.357       .  S
C795        C796   1.411       .  A
C795        C800   1.394       .  A
C795        H802   1.083       .  S
C796        C797   1.406   1_565  A
C797        C798   1.405       .  A
C797        F804   1.357       .  S
C798        C799   1.415       .  A
C798        H803   1.084       .  S
C799        C800   1.403   1_545  A
C800        F801   1.357       .  S
C805        C806   1.401       .  A
C805        C810   1.401   1_556  A
C805        H812   1.083       .  S
C806        C807   1.415       .  A
C807        C808   1.399       .  A
C807        F814   1.358       .  S
C808        C809   1.399       .  A
C808        H813   1.084       .  S
C809        C810   1.413   1_556  A
C810        F811   1.357       .  S
C815        C816   1.405       .  A
C815        C820   1.404       .  A
C815        H822   1.083       .  S
C816        C817   1.417       .  A
C817        C818   1.396       .  A
C817        F824   1.357       .  S
C818        C819   1.400       .  A
C818        H823   1.083       .  S
C819        C820   1.414       .  A
C820        F821   1.358   1_556  S
C825        C826   1.399       .  A
C825        C830   1.398       .  A
C825        H832   1.083       .  S
C826        C827   1.412       .  A
C827        C828   1.398       .  A
C827        F834   1.358       .  S
C828        C829   1.402       .  A
C828        H833   1.083       .  S
C829        C830   1.414       .  A
C830        F831   1.357       .  S
C835        C836   1.400       .  A
C835        C840   1.399       .  A
C835        H842   1.083       .  S
C836        C837   1.405       .  A
C837        C838   1.401       .  A
C837        F844   1.357       .  S
C838        C839   1.404       .  A
C838        H843   1.083       .  S
C839        C840   1.411       .  A
C840        F841   1.358       .  S
C845        C846   1.409       .  A
C845        C850   1.397       .  A
C845        H852   1.083       .  S
C846        C847   1.405       .  A
C847        C848   1.399       .  A
C847        F854   1.357       .  S
C848        C849   1.408       .  A
C848        H853   1.083       .  S
C849        C850   1.402       .  A
C850        F851   1.358       .  S
C855        C856   1.402       .  A
C855        C860   1.402       .  A
C855        H862   1.083       .  S
C856        C857   1.415       .  A
C857        C858   1.396       .  A
C857        F864   1.357       .  S
C858        C859   1.399       .  A
C858        H863   1.083       .  S
C859        C860   1.414       .  A
C860        F861   1.358       .  S
C865        C866   1.411       .  A
C865        C870   1.400       .  A
C865        H872   1.083       .  S
C866        C867   1.403       .  A
C867        C868   1.398       .  A
C867        F874   1.357       .  S
C868        C869   1.408       .  A
C868        H873   1.084       .  S
C869        C870   1.401       .  A
C870        F871   1.358       .  S
C875        C876   1.411       .  A
C875        C880   1.394       .  A
C875        H882   1.083       .  S
C876        C877   1.402       .  A
C877        C878   1.398   1_556  A
C877        F884   1.357   1_556  S
C878        C879   1.411   1_554  A
C878        H883   1.084       .  S
C879        C880   1.400       .  A
C880        F881   1.358       .  S
C885        C886   1.404   1_545  A
C885        C890   1.405       .  A
C885        H892   1.083       .  S
C886        C887   1.418       .  A
C887        C888   1.394       .  A
C887        F894   1.358       .  S
C888        C889   1.400   1_565  A
C888        H893   1.083       .  S
C889        C890   1.414       .  A
C890        F891   1.357       .  S
C895        C896   1.401       .  A
C895        C900   1.397       .  A
C895        H902   1.083       .  S
C896        C897   1.410   1_545  A
C897        C898   1.394   1_565  A
C897        F904   1.358       .  S
C898        C899   1.400       .  A
C898        H903   1.084       .  S
C899        C900   1.408       .  A
C900        F901   1.358       .  S
C905        C906   1.399       .  A
C905        C910   1.400       .  A
C905        H912   1.083       .  S
C906        C907   1.415       .  A
C907        C908   1.407       .  A
C907        F914   1.357       .  S
C908        C909   1.404       .  A
C908        H913   1.083       .  S
C909        C910   1.419       .  A
C910        F911   1.358       .  S
C915        C916   1.417       .  A
C915        C920   1.409       .  A
C915        H922   1.083       .  S
C916        C917   1.402       .  A
C917        C918   1.398       .  A
C917        F924   1.358       .  S
C918        C919   1.415       .  A
C918        H923   1.083       .  S
C919        C920   1.406       .  A
C920        F921   1.357       .  S
C925        C926   1.408       .  A
C925        C930   1.393       .  A
C925        H932   1.083       .  S
C926        C927   1.401       .  A
C927        C928   1.398       .  A
C927        F934   1.358       .  S
C928        C929   1.412       .  A
C928        H933   1.084       .  S
C929        C930   1.401       .  A
C930        F931   1.357       .  S
C935        C936   1.410       .  A
C935        C940   1.396       .  A
C935        H942   1.083       .  S
C936        C937   1.405       .  A
C937        C938   1.401       .  A
C937        F944   1.357       .  S
C938        C939   1.410       .  A
C938        H943   1.083       .  S
C939        C940   1.401       .  A
C940        F941   1.358       .  S
C945        C946   1.405       .  A
C945        C950   1.402       .  A
C945        H952   1.083       .  S
C946        C947   1.400       .  A
C947        C948   1.399       .  A
C947        F954   1.358       .  S
C948        C949   1.412       .  A
C948        H953   1.084       .  S
C949        C950   1.406       .  A
C950        F951   1.357       .  S
C955        C956   1.402       .  A
C955        C960   1.403       .  A
C955        H962   1.083       .  S
C956        C957   1.406       .  A
C957        C958   1.399       .  A
C957        F964   1.357       .  S
C958        C959   1.404       .  A
C958        H963   1.083       .  S
C959        C960   1.413       .  A
C960        F961   1.358       .  S
C965        C966   1.399       .  A
C965        C970   1.399       .  A
C965        H972   1.083       .  S
C966        C967   1.407       .  A
C967        C968   1.401       .  A
C967        F974   1.357       .  S
C968        C969   1.403       .  A
C968        H973   1.083       .  S
C969        C970   1.414       .  A
C970        F971   1.358       .  S
C975        C976   1.410       .  A
C975        C980   1.398       .  A
C975        H982   1.083       .  S
C976        C977   1.401       .  A
C977        C978   1.398       .  A
C977        F984   1.358       .  S
C978        C979   1.412       .  A
C978        H983   1.084       .  S
C979        C980   1.400       .  A
C980        F981   1.357       .  S
C985        C986   1.401       .  A
C985        C990   1.402       .  A
C985        H992   1.083       .  S
C986        C987   1.408       .  A
C987        C988   1.393       .  A
C987        F994   1.358       .  S
C988        C989   1.402       .  A
C988        H993   1.083       .  S
C989        C990   1.414       .  A
C990        F991   1.358       .  S
C995        C996   1.398       .  A
C995       C1000   1.399       .  A
C995       H1002   1.083       .  S
C996        C997   1.408       .  A
C997        C998   1.401       .  A
C997       F1004   1.358       .  S
C998        C999   1.403       .  A
C998       H1003   1.083       .  S
C999       C1000   1.413       .  A
C1000      F1001   1.358       .  S
C1005      C1006   1.414       .  A
C1005      C1010   1.406       .  A
C1005      H1012   1.083       .  S
C1006      C1007   1.401       .  A
C1007      C1008   1.397       .  A
C1007      F1014   1.358       .  S
C1008      C1009   1.412       .  A
C1008      H1013   1.083       .  S
C1009      C1010   1.405       .  A
C1010      F1011   1.357       .  S
C1015      C1016   1.411       .  A
C1015      C1020   1.401       .  A
C1015      H1022   1.083       .  S
C1016      C1017   1.405       .  A
C1017      C1018   1.399       .  A
C1017      F1024   1.358       .  S
C1018      C1019   1.404       .  A
C1018      H1023   1.084       .  S
C1019      C1020   1.401       .  A
C1020      F1021   1.357       .  S
C1025      C1026   1.410       .  A
C1025      C1030   1.396       .  A
C1025      H1032   1.083       .  S
C1026      C1027   1.404       .  A
C1027      C1028   1.402       .  A
C1027      F1034   1.357       .  S
C1028      C1029   1.413       .  A
C1028      H1033   1.084       .  S
C1029      C1030   1.403       .  A
C1030      F1031   1.357       .  S
C1035      C1036   1.403       .  A
C1035      C1040   1.403       .  A
C1035      H1042   1.083       .  S
C1036      C1037   1.411       .  A
C1037      C1038   1.398       .  A
C1037      F1044   1.357       .  S
C1038      C1039   1.403       .  A
C1038      H1043   1.083       .  S
C1039      C1040   1.413       .  A
C1040      F1041   1.358       .  S
C1045      C1046   1.409       .  A
C1045      C1050   1.402       .  A
C1045      H1052   1.083       .  S
C1046      C1047   1.401       .  A
C1047      C1048   1.397       .  A
C1047      F1054   1.357       .  S
C1048      C1049   1.408       .  A
C1048      H1053   1.084   1_556  S
C1049      C1050   1.403       .  A
C1050      F1051   1.358       .  S
C1055      C1056   1.409       .  A
C1055      C1060   1.394       .  A
C1055      H1062   1.083       .  S
C1056      C1057   1.400       .  A
C1057      C1058   1.401   1_556  A
C1057      F1064   1.357   1_556  S
C1058      C1059   1.413   1_554  A
C1058      H1063   1.084       .  S
C1059      C1060   1.400       .  A
C1060      F1061   1.357       .  S
C1065      C1066   1.402       .  A
C1065      C1070   1.403       .  A
C1065      H1072   1.083       .  S
C1066      C1067   1.414       .  A
C1067      C1068   1.394       .  A
C1067      F1074   1.358       .  S
C1068      C1069   1.400       .  A
C1068      H1073   1.083       .  S
C1069      C1070   1.414       .  A
C1070      F1071   1.357       .  S
