geometry optimzed in LAMMPS
_audit_creation_date              2020-12-01 
_audit_creation_method            'lammps2cif' 
_symmetry_space_group_name_H-M    'P1' 
_symmetry_Int_Tables_number       1 
_symmetry_cell_setting            triclinic 
loop_ 
_symmetry_equiv_pos_as_xyz 
  x,y,z 
_cell_length_a                    37.79083683 
_cell_length_b                    37.83644565342253 
_cell_length_c                    62.25678588043098 
_cell_angle_alpha                 90.2091827620986 
_cell_angle_beta                  89.90242913910572 
_cell_angle_gamma                 90.00152615829728 
loop_ 
_atom_site_label 
_atom_site_type_symbol 
_atom_site_fract_x 
_atom_site_fract_y 
_atom_site_fract_z 
_atom_site_charge 
C1          C  0.43252266  0.31767783  0.35253549     0.79900
N2          N  0.40424992  0.30181587  0.34296626    -0.78400
C3          C  0.39228798  0.31337516  0.32363012     0.82400
N4          N  0.40835996  0.34117931  0.31397951    -0.78300
C5          C  0.43647670  0.35720652  0.32337918     0.82500
N6          N  0.44843702  0.34545708  0.34263208    -0.80000
C7          C  0.39893414  0.35167315  0.17554186     0.79900
N8          N  0.42364305  0.37037128  0.18661308    -0.78400
C9          C  0.42824122  0.36526198  0.20794570     0.82400
N10         N  0.40741194  0.34180349  0.21845550    -0.78300
C11         C  0.38368493  0.32184545  0.20745125     0.82500
N12         N  0.37911214  0.32719761  0.18606660    -0.80000
C13         C  0.16667728  0.36292428  0.35858004     0.79900
N14         N  0.18435757  0.33725754  0.34765074    -0.78400
C15         C  0.17673096  0.33035879  0.32680072     0.82400
N16         N  0.15194841  0.34991243  0.31657260    -0.78300
C17         C  0.13312256  0.37470889  0.32746570     0.82500
N18         N  0.14080162  0.38153672  0.34842110    -0.80000
C19         C  0.42476114  0.12150240  0.17985736     0.79900
N20         N  0.39786772  0.13809633  0.19025854    -0.78400
C21         C  0.38721979  0.12720383  0.20996054     0.82400
N22         N  0.40357343  0.09954777  0.21948028    -0.78300
C23         C  0.43091178  0.08311737  0.20947455     0.82500
N24         N  0.44153543  0.09414527  0.18970574    -0.80000
N25         N  0.98548940  0.43161496  0.22656993    -0.06400
N26         N  0.97870412  0.40689622  0.21211038    -0.58500
N27         N  0.45984674  0.01228488  0.24155330    -0.06100
N28         N  0.43668398  0.03778552  0.23815362    -0.60700
N29         N  0.98433387  0.01247334  0.22648123    -0.05700
N30         N  0.97828825  0.03785773  0.21247922    -0.58500
N31         N  0.46178553  0.43075630  0.24205163    -0.05400
N32         N  0.43881058  0.40511097  0.23868497    -0.61000
C33         C  0.44987160  0.39027419  0.22010207     0.95800
C34         C  0.44859331  0.05343619  0.22000404     0.95500
N35         N  0.98222099  0.01244180  0.30796662    -0.06600
N36         N  0.97275116  0.03511291  0.32316285    -0.59100
N37         N  0.46154370  0.43086271  0.29239774    -0.04700
N38         N  0.44000741  0.40381658  0.29533155    -0.60400
N39         N  0.98592330  0.43157630  0.30746572    -0.06600
N40         N  0.98142735  0.40518084  0.32101708    -0.59400
N41         N  0.45874865  0.01230341  0.29237503    -0.04400
N42         N  0.43330720  0.03527574  0.29640168    -0.60400
Mn43       Mn  0.45946028  0.47162870  0.26706727     1.18400
C44         C  0.44249610  0.04949423  0.31552125     0.97900
C45         C  0.45278801  0.38806989  0.31318788     0.98500
N46         N  0.06810473  0.01396520  0.22596839    -0.06600
N47         N  0.07648755  0.03698831  0.21083859    -0.62900
N48         N  0.09300279  0.43356454  0.24157209    -0.05400
N49         N  0.11592647  0.40769053  0.23845454    -0.63600
N50         N  0.06871241  0.43319577  0.22646842    -0.06100
N51         N  0.07458190  0.40726320  0.21270226    -0.63200
N52         N  0.09151666  0.01503100  0.24156247    -0.05000
N53         N  0.11576417  0.03922625  0.23764817    -0.63900
Mn54       Mn  0.02659414  0.47287427  0.22573428     1.10700
C55         C  0.10590711  0.05297564  0.21860223     0.99100
C56         C  0.10400008  0.39156531  0.22042758     0.99200
N57         N  0.06970428  0.43482133  0.30792005    -0.06200
N58         N  0.07926985  0.41253398  0.32318394    -0.61500
N59         N  0.09059552  0.01559751  0.29197936    -0.05500
N60         N  0.11308991  0.04171484  0.29517949    -0.58300
N61         N  0.06631033  0.01523230  0.30716929    -0.06800
N62         N  0.07192660  0.04092696  0.32113163    -0.61100
N63         N  0.09310602  0.43463859  0.29223770    -0.05800
N64         N  0.11856206  0.41181366  0.29625319    -0.58300
Mn65       Mn  0.02600519  0.47356890  0.30828201     1.20200
Mn66       Mn  0.09291070  0.47468576  0.26683232     1.10100
Cl67       Cl  0.02621587  0.47330860  0.26700658    -0.86300
C68         C  0.10951968  0.39809031  0.31546615     0.96100
C69         C  0.10103793  0.05722430  0.31333761     0.95900
C70         C  0.12583705  0.32157815  0.18099778     0.79900
N71         N  0.15286519  0.30494484  0.19115708    -0.78400
C72         C  0.16431846  0.31642045  0.21060143     0.82400
N73         N  0.14855790  0.34470029  0.22005735    -0.78300
C74         C  0.12108322  0.36109685  0.21023149     0.82500
N75         N  0.10976278  0.34948246  0.19074518    -0.80000
C76         C  0.38640495  0.08453250  0.35944823     0.79900
N77         N  0.41206017  0.06619014  0.34881033    -0.78400
C78         C  0.41889631  0.07284842  0.32777848     0.82400
N79         N  0.39948700  0.09744147  0.31725704    -0.78300
C80         C  0.37486064  0.11687066  0.32790088     0.82500
N81         N  0.36794897  0.10997505  0.34887639    -0.80000
C82         C  0.12562496  0.12378880  0.35407375     0.79900
N83         N  0.15241106  0.14086425  0.34388913    -0.78400
C84         C  0.16229024  0.13101775  0.32379231     0.82400
N85         N  0.14559356  0.10377226  0.31389859    -0.78300
C86         C  0.11867615  0.08679566  0.32391294     0.82500
N87         N  0.10883864  0.09672845  0.34398665    -0.80000
C88         C  0.16370903  0.08388596  0.17483215     0.79900
N89         N  0.13682509  0.06753513  0.18542065    -0.78400
C90         C  0.12930365  0.07595230  0.20610916     0.82400
N91         N  0.14916322  0.10057639  0.21637823    -0.78300
C92         C  0.17476269  0.11852729  0.20568686     0.83300
N93         N  0.18237084  0.10981612  0.18496923    -0.80000
N94         N  0.31796719  0.26357315  0.30751234    -0.06400
N95         N  0.34416192  0.26835443  0.32125066    -0.58500
N96         N  0.23739191  0.29040147  0.29188890    -0.06100
N97         N  0.21414082  0.31568372  0.29558323    -0.60700
N98         N  0.23699593  0.26706473  0.30748987    -0.05700
N99         N  0.21386050  0.27646143  0.32239833    -0.58500
N100        N  0.31888983  0.28769075  0.29232650    -0.05400
N101        N  0.34586418  0.30930804  0.29538226    -0.61000
C102        C  0.36136193  0.29689773  0.31343034     0.95800
C103        C  0.19945842  0.30647635  0.31451610     0.95500
N104        N  0.23663793  0.26431892  0.22657147    -0.06600
N105        N  0.21030386  0.26969184  0.21308294    -0.59100
N106        N  0.31875938  0.28755109  0.24175250    -0.04700
N107        N  0.34390749  0.31094116  0.23815489    -0.60400
N108        N  0.31775541  0.26394223  0.22621532    -0.06600
N109        N  0.34189057  0.27120257  0.21146988    -0.59400
N110        N  0.23709748  0.28892709  0.24157371    -0.04400
N111        N  0.21088788  0.31148383  0.23866721    -0.60400
Mn112      Mn  0.27809721  0.28963581  0.26685939     1.18400
C113        C  0.19446929  0.29909710  0.22088178     0.97900
C114        C  0.35826542  0.30028507  0.21935144     0.98500
N115        N  0.23393821  0.18331720  0.30705786    -0.06600
N116        N  0.20804439  0.17791391  0.32090924    -0.62900
N117        N  0.31480888  0.15639240  0.29256680    -0.05400
N118        N  0.33779775  0.13110222  0.29659804    -0.63600
N119        N  0.31456908  0.17987596  0.30819969    -0.06100
N120        N  0.33699076  0.17054792  0.32346580    -0.63200
N121        N  0.23365279  0.15891971  0.29192318    -0.05000
N122        N  0.20740623  0.13654634  0.29506019    -0.63900
Mn123      Mn  0.27582580  0.22350300  0.30824239     1.10700
C124        C  0.19171506  0.14879294  0.31312227     0.99100
C125        C  0.35160636  0.14036605  0.31576702     0.99200
N126        N  0.31673218  0.18074873  0.22686794    -0.06200
N127        N  0.34236625  0.17455226  0.21299223    -0.61500
N128        N  0.23516935  0.15720461  0.24141752    -0.05500
N129        N  0.21173091  0.13234862  0.23720221    -0.58300
N130        N  0.23626616  0.18043677  0.22576423    -0.06800
N131        N  0.21404598  0.17131907  0.21028968    -0.61100
N132        N  0.31637450  0.15656658  0.24200746    -0.05800
N133        N  0.34197341  0.13339116  0.23879629    -0.58300
Mn134      Mn  0.27678198  0.22245804  0.22571205     1.20200
Mn135      Mn  0.27499689  0.15643188  0.26700999     1.10100
Cl136      Cl  0.27640479  0.22299900  0.26696622    -0.86300
C137        C  0.35788184  0.14508745  0.22068587     0.96100
C138        C  0.19857488  0.14159378  0.21788753     0.95900
C139        C  0.26814345  0.45489987  0.49809437     0.02000
C140        C  0.29569870  0.48042091  0.49842841     0.02000
C141        C  0.30817970  0.49293642  0.51835507    -0.18600
C142        C  0.29438708  0.48018398  0.53779738     0.02000
C143        C  0.26841939  0.45329979  0.53735942     0.02000
C144        C  0.25528372  0.44139765  0.51759587    -0.18600
H145        H  0.23472223  0.42139850  0.51740309     0.04000
H146        H  0.32863091  0.01303532  0.51873780     0.04000
C147        C  0.04230943  0.23435529  0.03634355     0.02000
C148        C  0.01580531  0.20801260  0.03617592     0.02000
C149        C  0.50387224  0.19468158  0.01652419    -0.18600
C150        C  0.01788586  0.20660658  0.99696724     0.02000
C151        C  0.04539616  0.23217639  0.99703787     0.02000
C152        C  0.05665263  0.24616108  0.01684150    -0.18600
H153        H  0.07697927  0.26637406  0.01713197     0.04000
H154        H  0.48326530  0.17469627  0.01644792     0.04000
C155        C  0.04708996  0.21236095  0.49826032     0.02000
C156        C  0.01864885  0.23676949  0.49797598     0.02000
C157        C  0.00544606  0.24978879  0.51752670    -0.18600
C158        C  0.01883042  0.23786019  0.53723732     0.02000
C159        C  0.04604264  0.21226409  0.53748943     0.02000
C160        C  0.06025928  0.20038089  0.51797195    -0.18600
H161        H  0.08175463  0.18137695  0.51812994     0.04000
H162        H  0.48398468  0.26882303  0.51743325     0.04000
C163        C  0.27103790  0.48051257  0.03949097     0.02000
C164        C  0.29825160  0.45473033  0.03917773     0.02000
C165        C  0.31071968  0.44202327  0.01932620    -0.18600
C166        C  0.29690400  0.45456732  0.99993105     0.02000
C167        C  0.26993051  0.48037987  0.00014055     0.02000
C168        C  0.25712665  0.49288378  0.01993521    -0.18600
H169        H  0.23645999  0.01274316  0.02012431     0.04000
H170        H  0.33116155  0.42192207  0.01895325     0.04000
C171        C  0.37465616  0.37594839  0.85236729     0.79900
N172        N  0.35815744  0.34870959  0.84223072    -0.78400
C173        C  0.37023796  0.33692108  0.82293049     0.82400
N174        N  0.39873151  0.35254256  0.81374087    -0.78300
C175        C  0.41515309  0.37990544  0.82369606     0.82500
N176        N  0.40335728  0.39132420  0.84313368    -0.80000
C177        C  0.41782147  0.10600959  0.85995419     0.79900
N178        N  0.43659844  0.08039820  0.84961787    -0.78400
C179        C  0.43118072  0.07408110  0.82838661     0.82400
N180        N  0.40755331  0.09401644  0.81737856    -0.78300
C181        C  0.38773954  0.11859505  0.82775948     0.82500
N182        N  0.39330038  0.12488747  0.84892590    -0.80000
C183        C  0.18708682  0.06297117  0.85389335     0.79900
N184        N  0.15965898  0.04689343  0.84368912    -0.78400
C185        C  0.14807533  0.05889802  0.82441304     0.82400
N186        N  0.16398304  0.08724854  0.81524656    -0.78300
C187        C  0.19154548  0.10351096  0.82515508     0.82500
N188        N  0.20288483  0.09148684  0.84456032    -0.80000
C189        C  0.14827606  0.33237068  0.85985527     0.79900
N190        N  0.12823670  0.35684197  0.84944331    -0.78400
C191        C  0.13382959  0.36369114  0.82828518     0.82400
N192        N  0.15882418  0.34521269  0.81734821    -0.78300
C193        C  0.17978219  0.32178457  0.82774871     0.82500
N194        N  0.17419425  0.31518637  0.84885842    -0.80000
C195        C  0.13796693  0.11109313  0.67674205     0.79900
N196        N  0.16493259  0.12840876  0.68679362    -0.78400
C197        C  0.17450062  0.11932576  0.70708543     0.82400
N198        N  0.15662828  0.09334900  0.71739902    -0.78300
C199        C  0.13096847  0.07481131  0.70716012     0.82500
N200        N  0.12133965  0.08404636  0.68696349    -0.80000
C201        C  0.38046040  0.06621414  0.68223263     0.79900
N202        N  0.36479868  0.09453814  0.69176480    -0.78400
C203        C  0.37653678  0.10666450  0.71101955     0.82400
N204        N  0.40419102  0.09051377  0.72077536    -0.78300
C205        C  0.41971283  0.06195521  0.71149220     0.82500
N206        N  0.40772216  0.04976299  0.69228316    -0.80000
N207        N  0.32390922  0.25890211  0.72661601    -0.06400
N208        N  0.33236611  0.28168653  0.71135346    -0.58500
N209        N  0.34834898  0.17896516  0.74238646    -0.06100
N210        N  0.37146048  0.15332718  0.73912796    -0.60700
N211        N  0.32365881  0.17825512  0.72748309    -0.05700
N212        N  0.32955020  0.15233635  0.71370900    -0.58500
N213        N  0.34736647  0.26012330  0.74218357    -0.05400
N214        N  0.37172388  0.28410493  0.73812206    -0.61000
C215        C  0.36194497  0.29753701  0.71899491     0.95800
C216        C  0.35932905  0.13701809  0.72122893     0.95500
N217        N  0.32600342  0.18018368  0.80851431    -0.06600
N218        N  0.33485897  0.15704170  0.82340724    -0.59100
N219        N  0.34677097  0.26178693  0.79261938    -0.04700
N220        N  0.36753014  0.28957847  0.79510649    -0.60400
N221        N  0.32257826  0.26107121  0.80783730    -0.06600
N222        N  0.32634096  0.28820162  0.82100833    -0.59400
N223        N  0.34953119  0.18017085  0.79292176    -0.04400
N224        N  0.37446922  0.15659800  0.79663570    -0.60400
Mn225      Mn  0.34900173  0.22027039  0.76756101     1.18400
C226        C  0.36479724  0.14220770  0.81556444     0.97900
C227        C  0.35436854  0.30575327  0.81282980     0.98500
N228        N  0.23908114  0.17810615  0.72719273    -0.06600
N229        N  0.22900005  0.15637772  0.71163748    -0.62900
N230        N  0.21604297  0.25861426  0.74300965    -0.05400
N231        N  0.19317863  0.28447282  0.73986796    -0.63600
N232        N  0.24025300  0.25858597  0.72778085    -0.06100
N233        N  0.23433494  0.28416498  0.71391668    -0.63200
N234        N  0.21600556  0.17742424  0.74305249    -0.05000
N235        N  0.19039690  0.15478973  0.73888623    -0.63900
Mn236      Mn  0.28174128  0.21834175  0.72664219     1.10700
C237        C  0.19892429  0.14164553  0.71939183     0.99100
C238        C  0.20500900  0.30009117  0.72170065     0.99200
N239        N  0.23999262  0.25847318  0.80880066    -0.06200
N240        N  0.23219855  0.28272139  0.82338020    -0.61500
N241        N  0.21758433  0.17681289  0.79381666    -0.05500
N242        N  0.19558218  0.15021215  0.79705613    -0.58300
N243        N  0.24216960  0.17730123  0.80877865    -0.06800
N244        N  0.23728885  0.15120692  0.82255231    -0.61100
N245        N  0.21637375  0.25857770  0.79334261    -0.05800
N246        N  0.19238803  0.28322386  0.79681446    -0.58300
Mn247      Mn  0.28272446  0.21911555  0.80917025     1.20200
Mn248      Mn  0.21559203  0.21777854  0.76836426     1.10100
Cl249      Cl  0.28226742  0.21870257  0.76790910    -0.86300
C250        C  0.20276049  0.29825356  0.81545097     0.96100
C251        C  0.20818169  0.13448158  0.81499201     0.95900
C252        C  0.41809314  0.33274915  0.67550008     0.79900
N253        N  0.39208769  0.31454997  0.68577518    -0.78400
C254        C  0.38490163  0.32133923  0.70678662     0.82400
N255        N  0.40444880  0.34566271  0.71758354    -0.78300
C256        C  0.42952151  0.36480922  0.70725058     0.82500
N257        N  0.43672494  0.35785950  0.68630543    -0.80000
C258        C  0.18147434  0.36722315  0.68120381     0.79900
N259        N  0.19806957  0.34012136  0.69129132    -0.78400
C260        C  0.18729125  0.32957087  0.71107018     0.82400
N261        N  0.15971974  0.34608052  0.72078953    -0.78300
C262        C  0.14331318  0.37345645  0.71095104     0.82500
N263        N  0.15430319  0.38408255  0.69122774    -0.80000
N264        N  0.49040684  0.42847233  0.80851945    -0.06400
N265        N  0.46362410  0.42425874  0.82190105    -0.58500
N266        N  0.07136858  0.40153656  0.79354973    -0.06100
N267        N  0.09488297  0.37659263  0.79740219    -0.60700
N268        N  0.07130836  0.42512732  0.80912431    -0.05700
N269        N  0.09438240  0.41628493  0.82413797    -0.58500
N270        N  0.48983853  0.40410693  0.79337057    -0.05400
N271        N  0.46250530  0.38287942  0.79606665    -0.61000
C272        C  0.44648876  0.39579726  0.81387730     0.95800
C273        C  0.10916643  0.38622894  0.81641135     0.95500
N274        N  0.07218740  0.42660647  0.72777240    -0.06600
N275        N  0.09783456  0.42057674  0.71383715    -0.59100
N276        N  0.49065999  0.40263604  0.74283032    -0.04700
N277        N  0.46683207  0.37805115  0.73876479    -0.60400
N278        N  0.49153629  0.42602861  0.72725889    -0.06600
N279        N  0.46871737  0.41736647  0.71203424    -0.59400
N280        N  0.07197145  0.40227555  0.74284900    -0.04400
N281        N  0.09769115  0.37928048  0.73955261    -0.60400
Mn282      Mn  0.03097198  0.40168334  0.76817665     1.18400
C283        C  0.11353700  0.39112198  0.72146195     0.97900
C284        C  0.45315085  0.38772461  0.71965668     0.98500
N285        N  0.07414581  0.00874762  0.80838666    -0.06600
N286        N  0.10067594  0.01347483  0.82185481    -0.62900
N287        N  0.49289731  0.03509395  0.79365090    -0.05400
N288        N  0.46935240  0.06003147  0.79743188    -0.63600
N289        N  0.49317402  0.01189819  0.80931975    -0.06100
N290        N  0.47015893  0.02105681  0.82438292    -0.63200
N291        N  0.07445405  0.03311560  0.79334389    -0.05000
N292        N  0.10138047  0.05488764  0.79623558    -0.63900
Mn293      Mn  0.03228921  0.46855347  0.80951345     1.10700
C294        C  0.11746722  0.04223635  0.81403285     0.99100
C295        C  0.45520984  0.05083703  0.81650888     0.99200
N296        N  0.49142449  0.00963899  0.72802899    -0.06200
N297        N  0.46553971  0.01524870  0.71427535    -0.61500
N298        N  0.07286662  0.03392135  0.74295320    -0.05500
N299        N  0.09581284  0.05919888  0.73887079    -0.58300
N300        N  0.07204521  0.01075959  0.72715608    -0.06800
N301        N  0.09399742  0.02046197  0.71166635    -0.61100
N302        N  0.49162570  0.03410877  0.74312008    -0.05800
N303        N  0.46567742  0.05688403  0.73996203    -0.58300
Mn304      Mn  0.03186290  0.46823591  0.72692791     1.20200
Mn305      Mn  0.03295172  0.03491520  0.76829321     1.10100
Cl306      Cl  0.03206059  0.46832564  0.76821590    -0.86300
C307        C  0.44968703  0.04467713  0.72196523     0.96100
C308        C  0.10903071  0.05036536  0.71948308     0.95900
C309        C  0.21769439  0.06675038  0.91186476    -0.02300
C310        C  0.21917312  0.03071380  0.91760703     0.06300
C311        C  0.20884322  0.00515453  0.90247625    -0.08300
C312        C  0.19811920  0.01486042  0.88173080     0.03700
C313        C  0.19817313  0.05093502  0.87563825    -0.15500
C314        C  0.20792713  0.07646365  0.89098051    -0.08800
C315        C  0.23195777  0.01906769  0.93912794     0.04700
C316        C  0.20924196  0.99981885  0.95263965    -0.09900
C317        C  0.22079935  0.98763832  0.97273806    -0.00300
C318        C  0.25555928  0.49495082  0.97970126    -0.00500
C319        C  0.27795823  0.01475063  0.96636105    -0.13500
C320        C  0.26684149  0.02603124  0.94606805     0.00000
C321        C  0.19694143  0.96684233  0.98567324     0.39300
C322        C  0.29230365  0.04312718  0.93224757     0.35900
C323        C  0.22476903  0.09431201  0.92737158     0.35700
C324        C  0.18824037  0.98703655  0.86696699     0.36400
N325        N  0.17784999  0.95015983  0.99606832    -0.44400
N326        N  0.31278211  0.05667019  0.92115288    -0.44800
N327        N  0.18025807  0.46451511  0.85531390    -0.42200
N328        N  0.23024601  0.11641040  0.93982750    -0.43600
H329        H  0.20704324  0.10425303  0.88682125     0.12500
H330        H  0.20962562  0.47742819  0.90681746     0.09000
H331        H  0.18251807  0.99402782  0.94736993     0.10100
H332        H  0.30455921  0.52079665  0.97164427     0.15900
C333        C  0.37790003  0.39423685  0.91191661    -0.02300
C334        C  0.34302012  0.40572652  0.91628254     0.06300
C335        C  0.31865690  0.40778119  0.89928328    -0.08300
C336        C  0.32831759  0.39795358  0.87836136     0.03700
C337        C  0.36323808  0.38689195  0.87405390    -0.15500
C338        C  0.38778891  0.38541617  0.89088827    -0.08800
C339        C  0.33174871  0.41653780  0.93830112     0.04700
C340        C  0.35120205  0.44265740  0.94921398    -0.09900
C341        C  0.34141726  0.45377979  0.96982654    -0.00300
C342        C  0.31058624  0.44009474  0.97941777    -0.00500
C343        C  0.29117503  0.41384639  0.96871929    -0.13500
C344        C  0.30179349  0.40158830  0.94844353     0.00000
C345        C  0.36282543  0.47996652  0.98061195     0.39300
C346        C  0.28203757  0.37317318  0.93859636     0.35900
C347        C  0.40371164  0.39025719  0.92882314     0.35700
C348        C  0.30227323  0.40038157  0.86148746     0.36400
N349        N  0.37994190  0.50101077  0.98923682    -0.44400
N350        N  0.26633902  0.35034890  0.93066351    -0.44800
N351        N  0.28138226  0.40231887  0.84797222    -0.42200
N352        N  0.42428450  0.38721378  0.94244067    -0.43600
H353        H  0.41456915  0.37649273  0.88767074     0.12500
H354        H  0.29202307  0.41723874  0.90235774     0.09000
H355        H  0.37404292  0.45456070  0.94154914     0.10100
H356        H  0.26762500  0.40304962  0.97622012     0.15900
C357        C  0.13739189  0.14849848  0.62037576    -0.02300
C358        C  0.10090005  0.15213597  0.61625181     0.06300
C359        C  0.07646609  0.14085527  0.63172570    -0.08300
C360        C  0.08782317  0.12686105  0.65135449     0.03700
C361        C  0.12451353  0.12408465  0.65580114    -0.15500
C362        C  0.14888282  0.13513278  0.64014890    -0.08800
C363        C  0.08750660  0.16797968  0.59602520     0.04700
C364        C  0.06986112  0.14634645  0.58118131    -0.09900
C365        C  0.05623816  0.16038849  0.56212420    -0.00300
C366        C  0.05976115  0.19684780  0.55779083    -0.00500
C367        C  0.07727975  0.21854955  0.57270886    -0.13500
C368        C  0.09116215  0.20440869  0.59171139     0.00000
C369        C  0.03825664  0.13700583  0.54735442     0.39300
C370        C  0.10869941  0.22773418  0.60669813     0.35900
C371        C  0.16342934  0.15722593  0.60426831     0.35700
C372        C  0.06110027  0.11717799  0.66688559     0.36400
N373        N  0.02394787  0.11843874  0.53537944    -0.44400
N374        N  0.12291756  0.24624645  0.61874505    -0.44800
N375        N  0.03945401  0.10949016  0.67918975    -0.42200
N376        N  0.18426016  0.16391114  0.59126063    -0.43600
H377        H  0.17701650  0.13280849  0.64324976     0.12500
H378        H  0.04837371  0.14355917  0.62856808     0.09000
H379        H  0.06683295  0.11837872  0.58449111     0.10100
H380        H  0.08032241  0.24652100  0.56941630     0.15900
C381        C  0.42493989  0.31147715  0.61619142    -0.02300
C382        C  0.45727639  0.29288581  0.61540940     0.06300
C383        C  0.47679198  0.28814997  0.63426295    -0.08300
C384        C  0.46450732  0.30159247  0.65384200     0.03700
C385        C  0.43175092  0.31952284  0.65479590    -0.15500
C386        C  0.41206273  0.32413101  0.63594172    -0.08800
C387        C  0.47181274  0.27864138  0.59507110     0.04700
C388        C  0.49319588  0.30048554  0.58237908    -0.09900
C389        C  0.50894743  0.28748622  0.56359194    -0.00300
C390        C  0.00323505  0.25210616  0.55729368    -0.00500
C391        C  0.98189369  0.23020784  0.57002088    -0.13500
C392        C  0.46623782  0.24319783  0.58886560     0.00000
C393        C  0.53182303  0.31047336  0.55137705     0.39300
C394        C  0.94463019  0.21979873  0.60161852     0.35900
C395        C  0.40506945  0.31841026  0.59688577     0.35700
C396        C  0.48579277  0.29629699  0.67281797     0.36400
N397        N  0.55032058  0.32874601  0.54159554    -0.44400
N398        N  0.92730265  0.20103273  0.61183406    -0.44800
N399        N  0.00287550  0.29222086  0.68802009    -0.42200
N400        N  0.38937846  0.32424728  0.58135200    -0.43600
H401        H  0.38703171  0.33810161  0.63660306     0.12500
H402        H  0.00179755  0.27410079  0.63362042     0.09000
H403        H  0.49793445  0.32758330  0.58734132     0.10100
H404        H  0.97745563  0.20299306  0.56517835     0.15900
C405        C  0.05557208  0.27449998  0.94203040    -0.02300
C406        C  0.09261868  0.27403034  0.93902483     0.06300
C407        C  0.11408359  0.25946919  0.95505660    -0.08300
C408        C  0.09932451  0.24556714  0.97388015     0.03700
C409        C  0.06213446  0.24565501  0.97687569    -0.15500
C410        C  0.04070922  0.26036556  0.96078407    -0.08800
C411        C  0.10947828  0.28930509  0.91950042     0.04700
C412        C  0.10528903  0.32546954  0.91520467    -0.09900
C413        C  0.11903207  0.34055434  0.89641564    -0.00300
C414        C  0.13756705  0.31929973  0.88145117    -0.00500
C415        C  0.14327095  0.28341582  0.88638244    -0.13500
C416        C  0.12938231  0.26834975  0.90511032     0.00000
C417        C  0.11402961  0.37794517  0.89306419     0.39300
C418        C  0.13451637  0.23097853  0.90867326     0.35900
C419        C  0.03229557  0.28945793  0.92610142     0.35700
C420        C  0.12314951  0.23174798  0.98989888     0.36400
N421        N  0.11007281  0.40792758  0.89035623    -0.44400
N422        N  0.13868727  0.20105084  0.91150974    -0.44800
N423        N  0.14248662  0.22125562  0.00278346    -0.42200
N424        N  0.01378761  0.30174835  0.91336082    -0.43600
H425        H  0.01226390  0.26141425  0.96304279     0.12500
H426        H  0.14259297  0.25945043  0.95297321     0.09000
H427        H  0.09083944  0.34191440  0.92651090     0.10100
H428        H  0.15731701  0.26652466  0.87513314     0.15900
C429        C  0.01102259  0.15542091  0.94470812    -0.02300
C430        C  0.47481434  0.15938048  0.93973639     0.06300
C431        C  0.45295759  0.17878847  0.95362114    -0.08300
C432        C  0.46664538  0.19469765  0.97208855     0.03700
C433        C  0.50300069  0.19130587  0.97695402    -0.15500
C434        C  0.02483654  0.17143063  0.96322618    -0.08800
C435        C  0.45935073  0.14547044  0.91954026     0.04700
C436        C  0.45526664  0.10887053  0.91664208    -0.09900
C437        C  0.44015133  0.09529801  0.89775314    -0.00300
C438        C  0.42937847  0.11856633  0.88135019    -0.00500
C439        C  0.43259013  0.15518408  0.88462863    -0.13500
C440        C  0.44732392  0.16871783  0.90349333     0.00000
C441        C  0.43439546  0.05769156  0.89593734     0.39300
C442        C  0.45058737  0.20659114  0.90583981     0.35900
C443        C  0.03456557  0.13566365  0.93089653     0.35700
C444        C  0.44289135  0.21482599  0.98560444     0.36400
N445        N  0.42926910  0.02762285  0.89448150    -0.44400
N446        N  0.45306968  0.23691112  0.90783029    -0.44800
N447        N  0.42374136  0.23073846  0.99647047    -0.42200
N448        N  0.05356204  0.11977918  0.91991671    -0.43600
H449        H  0.05265056  0.16827419  0.96707298     0.12500
H450        H  0.42510601  0.18185156  0.94982725     0.09000
H451        H  0.46352596  0.09098136  0.92924936     0.10100
H452        H  0.42459749  0.17337595  0.87211002     0.15900
C453        C  0.35564610  0.99889717  0.58456746    -0.02300
C454        C  0.33272055  0.01558655  0.59935085     0.06300
C455        C  0.29780004  0.02289844  0.59326871    -0.08300
C456        C  0.28521706  0.51298215  0.57299753     0.03700
C457        C  0.30766622  0.49483592  0.55850094    -0.15500
C458        C  0.34303750  0.98881840  0.56429098    -0.08800
C459        C  0.34510721  0.02778180  0.62072701     0.04700
C460        C  0.34798380  0.06421052  0.62444931    -0.09900
C461        C  0.35952334  0.07726046  0.64428977    -0.00300
C462        C  0.36820549  0.05355691  0.66097104    -0.00500
C463        C  0.36539661  0.01701192  0.65719980    -0.13500
C464        C  0.35370689  0.00399746  0.63732052     0.00000
C465        C  0.36386306  0.11499419  0.64667520     0.39300
C466        C  0.34996713  0.46627295  0.63448465     0.35900
C467        C  0.39227441  0.99236960  0.58975420     0.35700
C468        C  0.24954305  0.52273964  0.56728338     0.36400
N469        N  0.36749254  0.14522564  0.64851288    -0.44400
N470        N  0.34697242  0.43603866  0.63225439    -0.44800
N471        N  0.22091253  0.53081289  0.56292241    -0.42200
N472        N  0.42163193  0.98716784  0.59394723    -0.43600
H473        H  0.36058451  0.97541072  0.55312430     0.12500
H474        H  0.28038449  0.03659155  0.60439565     0.09000
H475        H  0.34160823  0.08251753  0.61165263     0.10100
H476        H  0.37181745  0.99860245  0.66992269     0.15900
C477        C  0.20603012  0.42741021  0.63517876    -0.02300
C478        C  0.21570852  0.40307094  0.61898135     0.06300
C479        C  0.21430630  0.36676362  0.62333640    -0.08300
C480        C  0.20321710  0.35442400  0.64342862     0.03700
C481        C  0.19312523  0.37875897  0.65961328    -0.15500
C482        C  0.19437880  0.41510848  0.65516280    -0.08800
C483        C  0.22824014  0.41477713  0.59755158     0.04700
C484        C  0.26315634  0.40713947  0.59141875    -0.09900
C485        C  0.27629424  0.41810390  0.57150071    -0.00300
C486        C  0.25443790  0.43753046  0.55747568    -0.00500
C487        C  0.21896945  0.44348416  0.56311313    -0.13500
C488        C  0.20579359  0.43247392  0.58302856     0.00000
C489        C  0.31194832  0.40838875  0.56558148     0.39300
C490        C  0.16916900  0.43942402  0.58814623     0.35900
C491        C  0.20919969  0.46506870  0.63198496     0.35700
C492        C  0.20132805  0.31669204  0.64667616     0.36400
N493        N  0.34049660  0.40047923  0.56083129    -0.44400
N494        N  0.13983427  0.44509936  0.59225678    -0.44800
N495        N  0.19984199  0.28643874  0.64920908    -0.42200
N496        N  0.21183197  0.49525452  0.62950685    -0.43600
H497        H  0.18712000  0.43402147  0.66754164     0.12500
H498        H  0.22175596  0.34799398  0.61091260     0.09000
H499        H  0.28023976  0.39273720  0.60230443     0.10100
H500        H  0.20185698  0.45772986  0.55217751     0.15900
C501        C  0.20473144  0.07737893  0.11923806    -0.02300
C502        C  0.20706513  0.04039344  0.11623792     0.06300
C503        C  0.19466906  0.01798669  0.13245330    -0.08300
C504        C  0.18000166  0.03164891  0.15137964     0.03700
C505        C  0.17709819  0.06869685  0.15433968    -0.15500
C506        C  0.18985165  0.09119085  0.13818217    -0.08800
C507        C  0.22339291  0.02436524  0.09670112     0.04700
C508        C  0.25905662  0.03135464  0.09204811    -0.09900
C509        C  0.27536073  0.01697121  0.07376514    -0.00300
C510        C  0.25594059  0.99472018  0.05983921    -0.00500
C511        C  0.22043151  0.48728503  0.06468434    -0.13500
C512        C  0.20414636  0.50167503  0.08296190     0.00000
C513        C  0.31147863  0.02684891  0.06930553     0.39300
C514        C  0.16746054  0.49334707  0.08701930     0.35900
C515        C  0.21730039  0.10163686  0.10308316     0.35700
C516        C  0.17053266  0.00693228  0.16807460     0.36400
N517        N  0.34039391  0.03541547  0.06610414    -0.44400
N518        N  0.13810913  0.48651828  0.09033158    -0.44800
N519        N  0.16311996  0.98725861  0.18154607    -0.42200
N520        N  0.22755722  0.12104138  0.09016466    -0.43600
H521        H  0.18829341  0.11959280  0.14039586     0.12500
H522        H  0.19729740  0.98960134  0.13052058     0.09000
H523        H  0.27414277  0.04838617  0.10268536     0.10100
H524        H  0.20531721  0.47032540  0.05401703     0.15900
C525        C  0.07498989  0.14659715  0.45573678    -0.02300
C526        C  0.08952171  0.16880010  0.43991852     0.06300
C527        C  0.09261379  0.20513889  0.44394159    -0.08300
C528        C  0.08015437  0.21975480  0.46316573     0.03700
C529        C  0.06303059  0.19795495  0.47830935    -0.15500
C530        C  0.06163068  0.16130849  0.47470888    -0.08800
C531        C  0.09965070  0.15507168  0.41854728     0.04700
C532        C  0.07286997  0.14296843  0.40483353    -0.09900
C533        C  0.08063706  0.13218006  0.38385938    -0.00300
C534        C  0.11589727  0.13384668  0.37626723    -0.00500
C535        C  0.14274551  0.14542957  0.39022832    -0.13500
C536        C  0.13492810  0.15572178  0.41129326     0.00000
C537        C  0.05166294  0.12099104  0.37033828     0.39300
C538        C  0.16352413  0.16599240  0.42534572     0.35900
C539        C  0.07431622  0.10869549  0.45297242     0.35700
C540        C  0.08657223  0.25675218  0.46731110     0.36400
N541        N  0.02841261  0.11194843  0.35955891    -0.44400
N542        N  0.18646940  0.17396000  0.43665723    -0.44800
N543        N  0.09216021  0.28635953  0.47057164    -0.42200
N544        N  0.07421635  0.07831072  0.45077506    -0.43600
H545        H  0.04965256  0.14424475  0.48665294     0.12500
H546        H  0.10458084  0.22211990  0.43194459     0.09000
H547        H  0.04566420  0.14265812  0.41044067     0.10100
H548        H  0.16999360  0.14607611  0.38475725     0.15900
C549        C  0.32454657  0.05614673  0.40404621    -0.02300
C550        C  0.34823999  0.04342826  0.41969088     0.06300
C551        C  0.38477291  0.04557812  0.41586491    -0.08300
C552        C  0.39792494  0.05991553  0.39669353     0.03700
C553        C  0.37426325  0.07250297  0.38092286    -0.15500
C554        C  0.33765708  0.07079770  0.38498767    -0.08800
C555        C  0.33546539  0.02760064  0.44009747     0.04700
C556        C  0.33968343  0.49118171  0.44344270    -0.09900
C557        C  0.32772830  0.47524605  0.46243476    -0.00300
C558        C  0.31075666  0.49590059  0.47838783    -0.00500
C559        C  0.30785720  0.03256112  0.47529690    -0.13500
C560        C  0.31981530  0.04842880  0.45634721     0.00000
C561        C  0.33452832  0.43806138  0.46544972     0.39300
C562        C  0.31609508  0.08618804  0.45401725     0.35900
C563        C  0.28670233  0.05310519  0.40681842     0.35700
C564        C  0.43576976  0.06210843  0.39381728     0.36400
N565        N  0.34026764  0.40825606  0.46768696    -0.44400
N566        N  0.31308950  0.11645667  0.45215356    -0.44800
N567        N  0.46610562  0.06394525  0.39150918    -0.42200
N568        N  0.25638379  0.05057517  0.40898280    -0.43600
H569        H  0.31910593  0.07970170  0.37287916     0.12500
H570        H  0.40306315  0.03602054  0.42793464     0.09000
H571        H  0.35240419  0.47519625  0.43116222     0.10100
H572        H  0.29545703  0.04876310  0.48759378     0.15900
C573        C  0.08284661  0.23719228  0.09175174    -0.02300
C574        C  0.07909189  0.27317489  0.09735583     0.06300
C575        C  0.06474043  0.29677195  0.08237756    -0.08300
C576        C  0.05331547  0.28486805  0.06223970     0.03700
C577        C  0.05634994  0.24872731  0.05683504    -0.15500
C578        C  0.07173687  0.22536420  0.07157513    -0.08800
C579        C  0.09063728  0.28668321  0.11861871     0.04700
C580        C  0.12644798  0.28402509  0.12415898    -0.09900
C581        C  0.13855212  0.29560761  0.14418627    -0.00300
C582        C  0.11440847  0.30986297  0.15931740    -0.00500
C583        C  0.07865154  0.31342317  0.15347880    -0.13500
C584        C  0.06667011  0.30212694  0.13330204     0.00000
C585        C  0.17614074  0.29413344  0.14823939     0.39300
C586        C  0.02964996  0.30623927  0.12813486     0.35900
C587        C  0.09723337  0.21177139  0.10661487     0.35700
C588        C  0.53775892  0.31004963  0.04767325     0.36400
N589        N  0.20628762  0.29316348  0.15142432    -0.44400
N590        N  0.00006584  0.30982345  0.12389149    -0.44800
N591        N  0.52545701  0.33034399  0.03599906    -0.42200
N592        N  0.10892764  0.19148463  0.11851961    -0.43600
H593        H  0.07448862  0.19763561  0.06741246     0.12500
H594        H  0.06231142  0.32455596  0.08650323     0.09000
H595        H  0.14510667  0.27311511  0.11264493     0.10100
H596        H  0.05988475  0.32466061  0.16479838     0.15900
C597        C  0.46846733  0.20589404  0.08989093    -0.02300
C598        C  0.47286331  0.17023639  0.09614757     0.06300
C599        C  0.48970799  0.14676185  0.08190406    -0.08300
C600        C  0.50341935  0.15841009  0.06226896     0.03700
C601        C  0.49990189  0.19421444  0.05635648    -0.15500
C602        C  0.48187946  0.21744055  0.07014549    -0.08800
C603        C  0.46061504  0.15708521  0.11749665     0.04700
C604        C  0.42500269  0.16117825  0.12341082    -0.09900
C605        C  0.41262256  0.14988926  0.14348108    -0.00300
C606        C  0.43611279  0.13348308  0.15813872    -0.00500
C607        C  0.47154799  0.12862472  0.15194668    -0.13500
C608        C  0.48394142  0.14033669  0.13198380     0.00000
C609        C  0.37548355  0.15471511  0.14817874     0.39300
C610        C  0.02095894  0.13551719  0.12700963     0.35900
C611        C  0.45116102  0.23140327  0.10361293     0.35700
C612        C  0.52222548  0.13352908  0.04882358     0.36400
N613        N  0.34571347  0.15873138  0.15185229    -0.44400
N614        N  0.05057666  0.13133322  0.12300223    -0.44800
N615        N  0.53731924  0.11369085  0.03798133    -0.42200
N616        N  0.43706180  0.25193402  0.11446236    -0.43600
H617        H  0.97878272  0.24509616  0.06554987     0.12500
H618        H  0.49264630  0.11899146  0.08633863     0.09000
H619        H  0.40661520  0.17322431  0.11217479     0.10100
H620        H  0.48999884  0.11621853  0.16296052     0.15900
C621        C  0.23106837  0.38645258  0.40284229    -0.02300
C622        C  0.20849394  0.39890605  0.41923727     0.06300
C623        C  0.17175924  0.39882846  0.41588175    -0.08300
C624        C  0.15734291  0.38652885  0.39647313     0.03700
C625        C  0.17993797  0.37429063  0.37995750    -0.15500
C626        C  0.21672346  0.37421289  0.38349085    -0.08800
C627        C  0.22287968  0.41274852  0.43979784     0.04700
C628        C  0.22009053  0.44899725  0.44427621    -0.09900
C629        C  0.23421812  0.46331590  0.46320495    -0.00300
C630        C  0.25229432  0.44125227  0.47780509    -0.00500
C631        C  0.25405377  0.40478936  0.47357192    -0.13500
C632        C  0.23949312  0.39043704  0.45481494     0.00000
C633        C  0.22821096  0.50026849  0.46770460     0.39300
C634        C  0.24125337  0.35268044  0.45153633     0.35900
C635        C  0.26908525  0.38692916  0.40531423     0.35700
C636        C  0.11935123  0.38543030  0.39423199     0.36400
N637        N  0.22307934  0.02989431  0.47120635    -0.44400
N638        N  0.24261285  0.32240005  0.44898139    -0.44800
N639        N  0.08889607  0.38428759  0.39244087    -0.42200
N640        N  0.29951309  0.38729032  0.40738939    -0.43600
H641        H  0.23449212  0.36536752  0.37087647     0.12500
H642        H  0.15432331  0.40817007  0.42854024     0.09000
H643        H  0.20670480  0.46611743  0.43295694     0.10100
H644        H  0.26707365  0.38749668  0.48495091     0.15900
C645        C  0.30607165  0.40409442  0.09153503    -0.02300
C646        C  0.34238402  0.40794695  0.09632563     0.06300
C647        C  0.36394515  0.42744400  0.08235236    -0.08300
C648        C  0.34995890  0.44318313  0.06392909     0.03700
C649        C  0.31358897  0.43967237  0.05917208    -0.15500
C650        C  0.29197868  0.41997606  0.07308405    -0.08800
C651        C  0.35833321  0.39311829  0.11619234     0.04700
C652        C  0.35875151  0.35636308  0.11943779    -0.09900
C653        C  0.37303328  0.34186541  0.13827170    -0.00300
C654        C  0.38776577  0.36433907  0.15406938    -0.00500
C655        C  0.38831432  0.40097977  0.15037185    -0.13500
C656        C  0.37345225  0.41544651  0.13186205     0.00000
C657        C  0.37243854  0.30398288  0.14093818     0.39300
C658        C  0.37227467  0.45347245  0.12992356     0.35900
C659        C  0.28271372  0.38454742  0.10550921     0.35700
C660        C  0.37337030  0.46363241  0.05048747     0.36400
N661        N  0.37190288  0.27363036  0.14315603    -0.44400
N662        N  0.37121343  0.48393724  0.12846497    -0.44800
N663        N  0.39220787  0.48023970  0.03988379    -0.42200
N664        N  0.26411049  0.36875895  0.11671900    -0.43600
H665        H  0.26414315  0.41675450  0.06940922     0.12500
H666        H  0.39183456  0.43052193  0.08594772     0.09000
H667        H  0.34761873  0.33901988  0.10730340     0.10100
H668        H  0.39880111  0.41873982  0.16250448     0.15900
C669        C  0.99114933  0.29781968  0.45281515    -0.02300
C670        C  0.47556441  0.27418058  0.43803287     0.06300
C671        C  0.47170042  0.23851973  0.44374421    -0.08300
C672        C  0.48437660  0.22603468  0.46347567     0.03700
C673        C  0.00228790  0.24921110  0.47758799    -0.15500
C674        C  0.00441443  0.28521975  0.47235463    -0.08800
C675        C  0.46405093  0.28590238  0.41633367     0.04700
C676        C  0.48972194  0.29699734  0.40150543    -0.09900
C677        C  0.48024573  0.30739084  0.38068495    -0.00300
C678        C  0.44433061  0.30627122  0.37423599    -0.00500
C679        C  0.41872324  0.29507867  0.38916216    -0.13500
C680        C  0.42821545  0.28540869  0.41010042     0.00000
C681        C  0.50810145  0.31817686  0.36620376     0.39300
C682        C  0.40059960  0.27668359  0.42522239     0.35900
C683        C  0.99284276  0.33524409  0.44853395     0.35700
C684        C  0.47734532  0.18980475  0.46927561     0.36400
N685        N  0.03048088  0.32692361  0.35467485    -0.44400
N686        N  0.37842187  0.27006906  0.43740016    -0.44800
N687        N  0.47129832  0.16085655  0.47396834    -0.42200
N688        N  0.99384931  0.36530150  0.44521998    -0.43600
H689        H  0.01698002  0.30344375  0.48345664     0.12500
H690        H  0.45885166  0.22038558  0.43270535     0.09000
H691        H  0.01734710  0.29731709  0.40621132     0.10100
H692        H  0.39102219  0.29482488  0.38466505     0.15900
C693        C  0.43252943  0.81767386  0.35253503     0.79900
N694        N  0.40425648  0.80181183  0.34296621    -0.78400
C695        C  0.39229262  0.81337237  0.32363087     0.82400
N696        N  0.40836267  0.84117805  0.31398076    -0.78300
C697        C  0.43647950  0.85720558  0.32338007     0.82500
N698        N  0.44844212  0.84545469  0.34263220    -0.80000
C699        C  0.39892820  0.85167619  0.17554390     0.79900
N700        N  0.42363615  0.87037686  0.18661434    -0.78400
C701        C  0.42823749  0.86526667  0.20794664     0.82400
N702        N  0.40741255  0.84180539  0.21845691    -0.78300
C703        C  0.38368660  0.82184549  0.20745341     0.82500
N704        N  0.37911036  0.82719804  0.18606914    -0.80000
C705        C  0.16667809  0.86292599  0.35857940     0.79900
N706        N  0.18435820  0.83725973  0.34764977    -0.78400
C707        C  0.17673151  0.83036176  0.32679972     0.82400
N708        N  0.15194905  0.84991620  0.31657183    -0.78300
C709        C  0.13312319  0.87471233  0.32746545     0.82500
N710        N  0.14080237  0.88153897  0.34842095    -0.80000
C711        C  0.42476923  0.62150746  0.17986088     0.79900
N712        N  0.39787563  0.63810154  0.19026198    -0.78400
C713        C  0.38722679  0.62720845  0.20996381     0.82400
N714        N  0.40357969  0.59955156  0.21948326    -0.78300
C715        C  0.43091797  0.58312107  0.20947748     0.82500
N716        N  0.44154246  0.59414959  0.18970902    -0.80000
N717        N  0.98548757  0.93161599  0.22657075    -0.06400
N718        N  0.97870179  0.90689818  0.21211075    -0.58500
N719        N  0.45984908  0.51228317  0.24155286    -0.06100
N720        N  0.43668769  0.53778552  0.23815455    -0.60700
N721        N  0.98433632  0.51247311  0.22648140    -0.05700
N722        N  0.97828960  0.53785740  0.21247952    -0.58500
N723        N  0.46178236  0.93075901  0.24205310    -0.05400
N724        N  0.43880633  0.90511500  0.23868590    -0.61000
C725        C  0.44986709  0.89027894  0.22010275     0.95800
C726        C  0.44859792  0.55343798  0.22000579     0.95500
N727        N  0.98222451  0.51244068  0.30796598    -0.06600
N728        N  0.97275439  0.53511135  0.32316245    -0.59100
N729        N  0.46154131  0.93086511  0.29239962    -0.04700
N730        N  0.44000616  0.90381799  0.29533338    -0.60400
N731        N  0.98592329  0.93157757  0.30746620    -0.06600
N732        N  0.98143093  0.90517997  0.32101640    -0.59400
N733        N  0.45874976  0.51230059  0.29237410    -0.04400
N734        N  0.43330675  0.53527105  0.29640122    -0.60400
Mn735      Mn  0.45945779  0.97163116  0.26706857     1.18400
C736        C  0.44249432  0.54948900  0.31552118     0.97900
C737        C  0.45278814  0.88807096  0.31318933     0.98500
N738        N  0.06810806  0.51396462  0.22596874    -0.06600
N739        N  0.07649025  0.53699024  0.21084022    -0.62900
N740        N  0.09300122  0.93356706  0.24157416    -0.05400
N741        N  0.11592521  0.90769292  0.23845754    -0.63600
N742        N  0.06871061  0.93319642  0.22647062    -0.06100
N743        N  0.07458030  0.90726244  0.21270548    -0.63200
N744        N  0.09152057  0.51502828  0.24156258    -0.05000
N745        N  0.11576775  0.53922447  0.23764943    -0.63900
Mn746      Mn  0.02659186  0.97287470  0.22573501     1.10700
C747        C  0.10590985  0.55297687  0.21860445     0.99100
C748        C  0.10399878  0.89156560  0.22043126     0.99200
N749        N  0.06970396  0.93482604  0.30792149    -0.06200
N750        N  0.07927002  0.91253792  0.32318489    -0.61500
N751        N  0.09060090  0.51559135  0.29197921    -0.05500
N752        N  0.11309778  0.54170628  0.29518031    -0.58300
N753        N  0.06631540  0.51522696  0.30716899    -0.06800
N754        N  0.07193411  0.54091968  0.32113224    -0.61100
N755        N  0.09310556  0.93464432  0.29223909    -0.05800
N756        N  0.11856189  0.91181943  0.29625397    -0.58300
Mn757      Mn  0.02600291  0.97357188  0.30828282     1.20200
Mn758      Mn  0.09290788  0.97469034  0.26683326     1.10100
Cl759      Cl  0.02621322  0.97331091  0.26700734    -0.86300
C760        C  0.10951999  0.89809483  0.31546667     0.96100
C761        C  0.10104708  0.55721506  0.31333896     0.95900
C762        C  0.12583692  0.82158001  0.18100079     0.79900
N763        N  0.15286892  0.80494975  0.19115826    -0.78400
C764        C  0.16432404  0.81642630  0.21060211     0.82400
N765        N  0.14856164  0.84470429  0.22005920    -0.78300
C766        C  0.12108344  0.86109793  0.21023497     0.82500
N767        N  0.10976122  0.84948229  0.19074937    -0.80000
C768        C  0.38639930  0.58452175  0.35944848     0.79900
N769        N  0.41205504  0.56618044  0.34881026    -0.78400
C770        C  0.41889262  0.57284124  0.32777886     0.82400
N771        N  0.39948413  0.59743599  0.31725820    -0.78300
C772        C  0.37485726  0.61686422  0.32790244     0.82500
N773        N  0.36794422  0.60996592  0.34887746    -0.80000
C774        C  0.12563413  0.62377727  0.35407629     0.79900
N775        N  0.15241776  0.64085587  0.34389127    -0.78400
C776        C  0.16229625  0.63101143  0.32379398     0.82400
N777        N  0.14560131  0.60376491  0.31390010    -0.78300
C778        C  0.11868626  0.58678525  0.32391491     0.82500
N779        N  0.10884950  0.59671608  0.34398908    -0.80000
C780        C  0.16371241  0.58388956  0.17483566     0.79900
N781        N  0.13682901  0.56753768  0.18542389    -0.78400
C782        C  0.12930585  0.57595518  0.20611204     0.82400
N783        N  0.14916323  0.60058118  0.21638111    -0.78300
C784        C  0.17476191  0.61853351  0.20568972     0.83300
N785        N  0.18237185  0.60982158  0.18497248    -0.80000
N786        N  0.31796929  0.76357287  0.30751458    -0.06400
N787        N  0.34416489  0.76835298  0.32125249    -0.58500
N788        N  0.23739481  0.79040370  0.29188973    -0.06100
N789        N  0.21414341  0.81568603  0.29558315    -0.60700
N790        N  0.23699734  0.76706682  0.30749067    -0.05700
N791        N  0.21386028  0.77646367  0.32239816    -0.58500
N792        N  0.31889251  0.78769042  0.29232875    -0.05400
N793        N  0.34586790  0.80930648  0.29538403    -0.61000
C794        C  0.36136579  0.79689556  0.31343180     0.95800
C795        C  0.19945888  0.80647866  0.31451539     0.95500
N796        N  0.23664325  0.76432332  0.22657219    -0.06600
N797        N  0.21031030  0.76969785  0.21308304    -0.59100
N798        N  0.31876448  0.78755065  0.24175540    -0.04700
N799        N  0.34391298  0.81094017  0.23815793    -0.60400
N800        N  0.31776005  0.76394209  0.22621811    -0.06600
N801        N  0.34189518  0.77120187  0.21147272    -0.59400
N802        N  0.23710308  0.78893131  0.24157452    -0.04400
N803        N  0.21089479  0.81148948  0.23866749    -0.60400
Mn804      Mn  0.27810128  0.78963722  0.26686121     1.18400
C805        C  0.19447665  0.79910388  0.22088159     0.97900
C806        C  0.35827049  0.80028375  0.21935447     0.98500
N807        N  0.23393864  0.68331806  0.30705882    -0.06600
N808        N  0.20804586  0.67791227  0.32091064    -0.62900
N809        N  0.31480940  0.65639230  0.29256840    -0.05400
N810        N  0.33779664  0.63110065  0.29659952    -0.63600
N811        N  0.31456939  0.67987474  0.30820196    -0.06100
N812        N  0.33698946  0.67054414  0.32346845    -0.63200
N813        N  0.23365404  0.65892121  0.29192380    -0.05000
N814        N  0.20740916  0.63654591  0.29506085    -0.63900
Mn815      Mn  0.27582677  0.72350360  0.30824417     1.10700
C816        C  0.19171809  0.64879055  0.31312336     0.99100
C817        C  0.35160426  0.64036204  0.31576913     0.99200
N818        N  0.31673541  0.68075046  0.22686971    -0.06200
N819        N  0.34237115  0.67455538  0.21299488    -0.61500
N820        N  0.23517110  0.65720879  0.24141901    -0.05500
N821        N  0.21173046  0.63235460  0.23720455    -0.58300
N822        N  0.23626828  0.68044086  0.22576574    -0.06800
N823        N  0.21404624  0.67132468  0.21029184    -0.61100
N824        N  0.31637745  0.65656822  0.24200914    -0.05800
N825        N  0.34197778  0.63339397  0.23879869    -0.58300
Mn826      Mn  0.27678563  0.72246036  0.22571370     1.20200
Mn827      Mn  0.27499862  0.65643386  0.26701119     1.10100
Cl828      Cl  0.27640727  0.72300061  0.26696792    -0.86300
C829        C  0.35788746  0.64509112  0.22068879     0.96100
C830        C  0.19857347  0.64160061  0.21789032     0.95900
C831        C  0.26814169  0.95490728  0.49809170     0.02000
C832        C  0.29569793  0.98042710  0.49842525     0.02000
C833        C  0.30817890  0.99294334  0.51835171    -0.18600
C834        C  0.29438527  0.98019301  0.53779431     0.02000
C835        C  0.26841639  0.95330971  0.53735686     0.02000
C836        C  0.25528079  0.94140685  0.51759340    -0.18600
H837        H  0.23471874  0.92140822  0.51740083     0.04000
H838        H  0.32863094  0.51302898  0.51874154     0.04000
C839        C  0.04230305  0.73437258  0.03634393     0.02000
C840        C  0.01581308  0.70801597  0.03617758     0.02000
C841        C  0.50388149  0.69468010  0.01652549    -0.18600
C842        C  0.01789082  0.70660923  0.99696874     0.02000
C843        C  0.04538806  0.73219340  0.99703792     0.02000
C844        C  0.05663789  0.74618585  0.01684119    -0.18600
H845        H  0.07695495  0.76640858  0.01713092     0.04000
H846        H  0.48328276  0.67468606  0.01645051     0.04000
C847        C  0.04709062  0.71235584  0.49826074     0.02000
C848        C  0.01865012  0.73676506  0.49797655     0.02000
C849        C  0.00544739  0.74978452  0.51752730    -0.18600
C850        C  0.01883220  0.73785651  0.53723803     0.02000
C851        C  0.04604373  0.71225971  0.53748977     0.02000
C852        C  0.06025938  0.70037512  0.51797235    -0.18600
H853        H  0.08175370  0.68137033  0.51813045     0.04000
H854        H  0.48398036  0.76881696  0.51743255     0.04000
C855        C  0.27104131  0.98050815  0.03948865     0.02000
C856        C  0.29825275  0.95472375  0.03917534     0.02000
C857        C  0.31072025  0.94201557  0.01932385    -0.18600
C858        C  0.29690504  0.95456015  0.99992858     0.02000
C859        C  0.26993376  0.98037505  0.00013819     0.02000
C860        C  0.25713125  0.99288056  0.01993289    -0.18600
H861        H  0.23645347  0.51274543  0.02012661     0.04000
H862        H  0.33116046  0.92191358  0.01895109     0.04000
C863        C  0.37466072  0.87594437  0.85236526     0.79900
N864        N  0.35816053  0.84870734  0.84222812    -0.78400
C865        C  0.37024133  0.83691840  0.82292814     0.82400
N866        N  0.39873676  0.85253760  0.81373926    -0.78300
C867        C  0.41515984  0.87989881  0.82369514     0.82500
N868        N  0.40336366  0.89131807  0.84313258    -0.80000
C869        C  0.41782067  0.60601107  0.85995545     0.79900
N870        N  0.43660086  0.58040366  0.84961777    -0.78400
C871        C  0.43118581  0.57408998  0.82838605     0.82400
N872        N  0.40755762  0.59402477  0.81737852    -0.78300
C873        C  0.38774039  0.61859948  0.82776036     0.82500
N874        N  0.39329835  0.62488854  0.84892759    -0.80000
C875        C  0.18708791  0.56297548  0.85389467     0.79900
N876        N  0.15966213  0.54689508  0.84369000    -0.78400
C877        C  0.14807746  0.55889929  0.82441417     0.82400
N878        N  0.16398176  0.58725223  0.81524829    -0.78300
C879        C  0.19154201  0.60351748  0.82515724     0.82500
N880        N  0.20288266  0.59149360  0.84456228    -0.80000
C881        C  0.14827712  0.83237265  0.85985297     0.79900
N882        N  0.12823932  0.85684554  0.84944129    -0.78400
C883        C  0.13383427  0.86369708  0.82828369     0.82400
N884        N  0.15882952  0.84521943  0.81734687    -0.78300
C885        C  0.17978587  0.82178952  0.82774708     0.82500
N886        N  0.17419562  0.81518857  0.84885632    -0.80000
C887        C  0.13796952  0.61108978  0.67674215     0.79900
N888        N  0.16493414  0.62840671  0.68679383    -0.78400
C889        C  0.17450232  0.61932430  0.70708567     0.82400
N890        N  0.15663129  0.59334669  0.71739921    -0.78300
C891        C  0.13097260  0.57480765  0.70716021     0.82500
N892        N  0.12134342  0.58404221  0.68696354    -0.80000
C893        C  0.38046513  0.56621655  0.68223197     0.79900
N894        N  0.36480230  0.59454054  0.69176339    -0.78400
C895        C  0.37654050  0.60666899  0.71101760     0.82400
N896        N  0.40419583  0.59052044  0.72077363    -0.78300
C897        C  0.41971859  0.56196198  0.71149109     0.82500
N898        N  0.40772782  0.54976759  0.69228268    -0.80000
N899        N  0.32390900  0.75890242  0.72661487    -0.06400
N900        N  0.33236632  0.78168763  0.71135283    -0.58500
N901        N  0.34834731  0.67896545  0.74238548    -0.06100
N902        N  0.37146034  0.65332922  0.73912656    -0.60700
N903        N  0.32365774  0.67825558  0.72748176    -0.05700
N904        N  0.32955115  0.65233830  0.71370691    -0.58500
N905        N  0.34736588  0.76012269  0.74218262    -0.05400
N906        N  0.37172343  0.78410448  0.73812188    -0.61000
C907        C  0.36194506  0.79753758  0.71899496     0.95800
C908        C  0.35933060  0.63702108  0.72122691     0.95500
N909        N  0.32600125  0.68018434  0.80851361    -0.06600
N910        N  0.33485817  0.65704468  0.82340763    -0.59100
N911        N  0.34677102  0.76178583  0.79261759    -0.04700
N912        N  0.36753131  0.78957648  0.79510431    -0.60400
N913        N  0.32257847  0.76107125  0.80783555    -0.06600
N914        N  0.32634225  0.78820166  0.82100632    -0.59400
N915        N  0.34952871  0.68017057  0.79292086    -0.04400
N916        N  0.37446778  0.65659932  0.79663573    -0.60400
Mn917      Mn  0.34900022  0.72026973  0.76755982     1.18400
C918        C  0.36479705  0.64221118  0.81556529     0.97900
C919        C  0.35437036  0.80575199  0.81282747     0.98500
N920        N  0.23908007  0.67810778  0.72719211    -0.06600
N921        N  0.22900023  0.65637765  0.71163750    -0.62900
N922        N  0.21604265  0.75861726  0.74300764    -0.05400
N923        N  0.19317942  0.78447686  0.73986590    -0.63600
N924        N  0.24025267  0.75858807  0.72777880    -0.06100
N925        N  0.23433560  0.78416745  0.71391464    -0.63200
N926        N  0.21600403  0.67742670  0.74305166    -0.05000
N927        N  0.19039610  0.65479110  0.73888583    -0.63900
Mn928      Mn  0.28174043  0.71834280  0.72664083     1.10700
C929        C  0.19892467  0.64164541  0.71939196     0.99100
C930        C  0.20501024  0.80009493  0.72169856     0.99200
N931        N  0.23999369  0.75847684  0.80879874    -0.06200
N932        N  0.23220105  0.78272564  0.82337815    -0.61500
N933        N  0.21758109  0.67681736  0.79381663    -0.05500
N934        N  0.19557748  0.65021811  0.79705742    -0.58300
N935        N  0.24216679  0.67730564  0.80877836    -0.06800
N936        N  0.23728505  0.65121305  0.82255306    -0.61100
N937        N  0.21637468  0.75858212  0.79334079    -0.05800
N938        N  0.19239024  0.78322952  0.79681257    -0.58300
Mn939      Mn  0.28272345  0.71911760  0.80916896     1.20200
Mn940      Mn  0.21559070  0.71778205  0.76836301     1.10100
Cl941      Cl  0.28226614  0.71870378  0.76790781    -0.86300
C942        C  0.20276373  0.79825901  0.81544894     0.96100
C943        C  0.20817677  0.63448865  0.81499381     0.95900
C944        C  0.41809632  0.83275127  0.67550221     0.79900
N945        N  0.39209041  0.81455133  0.68577637    -0.78400
C946        C  0.38490232  0.82134034  0.70678758     0.82400
N947        N  0.40444860  0.84566356  0.71758537    -0.78300
C948        C  0.42952214  0.86481016  0.70725320     0.82500
N949        N  0.43672711  0.85786111  0.68630827    -0.80000
C950        C  0.18147755  0.86723135  0.68120314     0.79900
N951        N  0.19807210  0.84012801  0.69128982    -0.78400
C952        C  0.18729383  0.82957648  0.71106858     0.82400
N953        N  0.15972299  0.84608658  0.72078846    -0.78300
C954        C  0.14331713  0.87346379  0.71095078     0.82500
N955        N  0.15430713  0.88409086  0.69122771    -0.80000
N956        N  0.49041342  0.92846592  0.80851968    -0.06400
N957        N  0.46363084  0.92425129  0.82190114    -0.58500
N958        N  0.07137150  0.90153982  0.79354865    -0.06100
N959        N  0.09488797  0.87659775  0.79740068    -0.60700
N960        N  0.07130964  0.92513026  0.80912343    -0.05700
N961        N  0.09438469  0.91628931  0.82413684    -0.58500
N962        N  0.48984601  0.90410083  0.79337062    -0.05400
N963        N  0.46251346  0.88287234  0.79606648    -0.61000
C964        C  0.44649654  0.89578947  0.81387723     0.95800
C965        C  0.10917112  0.88623472  0.81640978     0.95500
N966        N  0.07218782  0.92660997  0.72777173    -0.06600
N967        N  0.09783589  0.92058199  0.71383677    -0.59100
N968        N  0.49066544  0.90263283  0.74283078    -0.04700
N969        N  0.46683554  0.87804933  0.73876644    -0.60400
N970        N  0.49154037  0.92602589  0.72725964    -0.06600
N971        N  0.46871832  0.91736584  0.71203643    -0.59400
N972        N  0.07197338  0.90227907  0.74284835    -0.04400
N973        N  0.09769481  0.87928584  0.73955226    -0.60400
Mn974      Mn  0.03097438  0.90168385  0.76817599     1.18400
C975        C  0.11354035  0.89112837  0.72146179     0.97900
C976        C  0.45315150  0.88772464  0.71965942     0.98500
N977        N  0.07415122  0.50874507  0.80838691    -0.06600
N978        N  0.10068069  0.51347315  0.82185551    -0.62900
N979        N  0.49290136  0.53510093  0.79365040    -0.05400
N980        N  0.46935887  0.56004071  0.79743162    -0.63600
N981        N  0.49317566  0.51190471  0.80931902    -0.06100
N982        N  0.47016139  0.52106491  0.82438218    -0.63200
N983        N  0.07445985  0.53311277  0.79334400    -0.05000
N984        N  0.10138557  0.55488536  0.79623587    -0.63900
Mn985      Mn  0.03228669  0.96855339  0.80951273     1.10700
C986        C  0.11747171  0.54223484  0.81403340     0.99100
C987        C  0.45521538  0.55084672  0.81650846     0.99200
N988        N  0.49142653  0.50964313  0.72802900    -0.06200
N989        N  0.46554238  0.51525399  0.71427529    -0.61500
N990        N  0.07287221  0.53391793  0.74295389    -0.05500
N991        N  0.09581875  0.55919499  0.73887126    -0.58300
N992        N  0.07204973  0.51075625  0.72715676    -0.06800
N993        N  0.09400142  0.52045844  0.71166672    -0.61100
N994        N  0.49162976  0.53411385  0.74311953    -0.05800
N995        N  0.46568327  0.55689101  0.73996101    -0.58300
Mn996      Mn  0.03186043  0.96823730  0.72692724     1.20200
Mn997      Mn  0.03295778  0.53491438  0.76829383     1.10100
Cl998      Cl  0.03205846  0.96832633  0.76821521    -0.86300
C999        C  0.44969214  0.54468407  0.72196445     0.96100
C1000       C  0.10903563  0.55036144  0.71948336     0.95900
C1001       C  0.21769649  0.56675175  0.91186587    -0.02300
C1002       C  0.21917683  0.53071481  0.91760711     0.06300
C1003       C  0.20884896  0.50515609  0.90247551    -0.08300
C1004       C  0.19812450  0.51486308  0.88173035     0.03700
C1005       C  0.19817600  0.55093829  0.87563898    -0.15500
C1006       C  0.20792871  0.57646621  0.89098194    -0.08800
C1007       C  0.23195987  0.51906827  0.93912821     0.04700
C1008       C  0.20924333  0.49981847  0.95263894    -0.09900
C1009       C  0.22079856  0.48763966  0.97273820    -0.00300
C1010       C  0.25556179  0.99494618  0.97969916    -0.00500
C1011       C  0.27795628  0.51475630  0.96636403    -0.13500
C1012       C  0.26684208  0.52603438  0.94607002     0.00000
C1013       C  0.19694029  0.46684174  0.98567197     0.39300
C1014       C  0.29230541  0.54313013  0.93225023     0.35900
C1015       C  0.22477016  0.59431235  0.92737355     0.35700
C1016       C  0.18824701  0.48703978  0.86696579     0.36400
N1017       N  0.17784808  0.45015760  0.99606555    -0.44400
N1018       N  0.31278464  0.55667284  0.92115593    -0.44800
N1019       N  0.18025056  0.96451133  0.85531573    -0.42200
N1020       N  0.23024679  0.61640941  0.93983038    -0.43600
H1021       H  0.20704318  0.60425601  0.88682353     0.12500
H1022       H  0.20961848  0.97742689  0.90681898     0.09000
H1023       H  0.18252081  0.49402551  0.94736787     0.10100
H1024       H  0.30456241  0.02078895  0.97163999     0.15900
C1025       C  0.37790125  0.89422356  0.91191537    -0.02300
C1026       C  0.34302239  0.90571715  0.91628061     0.06300
C1027       C  0.31866127  0.90777805  0.89928056    -0.08300
C1028       C  0.32832298  0.89795305  0.87835840     0.03700
C1029       C  0.36324238  0.88688729  0.87405176    -0.15500
C1030       C  0.38779113  0.88540505  0.89088692    -0.08800
C1031       C  0.33175063  0.91652793  0.93829916     0.04700
C1032       C  0.35120526  0.94264583  0.94921255    -0.09900
C1033       C  0.34141907  0.95376995  0.96982452    -0.00300
C1034       C  0.31058677  0.94008674  0.97941524    -0.00500
C1035       C  0.29117443  0.91383958  0.96871626    -0.13500
C1036       C  0.30179300  0.90158123  0.94844048     0.00000
C1037       C  0.36282632  0.97995796  0.98060941     0.39300
C1038       C  0.28203367  0.87317008  0.93859152     0.35900
C1039       C  0.40371062  0.89023793  0.92882259     0.35700
C1040       C  0.30228121  0.90038814  0.86148341     0.36400
N1041       N  0.37994151  0.00100388  0.98923371    -0.44400
N1042       N  0.26633223  0.85034948  0.93065684    -0.44800
N1043       N  0.28139255  0.90233121  0.84796716    -0.42200
N1044       N  0.42428197  0.88718954  0.94244055    -0.43600
H1045       H  0.41457065  0.87647819  0.88766985     0.12500
H1046       H  0.29202828  0.91723892  0.90235456     0.09000
H1047       H  0.37404748  0.95454727  0.94154831     0.10100
H1048       H  0.26762301  0.90304461  0.97621643     0.15900
C1049       C  0.13739347  0.64849602  0.62037615    -0.02300
C1050       C  0.10090156  0.65213416  0.61625248     0.06300
C1051       C  0.07646786  0.64085178  0.63172617    -0.08300
C1052       C  0.08782528  0.62685599  0.65135450     0.03700
C1053       C  0.12451567  0.62408108  0.65580129    -0.15500
C1054       C  0.14888473  0.63513045  0.64014924    -0.08800
C1055       C  0.08750776  0.66797755  0.59602572     0.04700
C1056       C  0.06985160  0.64634616  0.58118541    -0.09900
C1057       C  0.05622964  0.66038741  0.56212786    -0.00300
C1058       C  0.05976287  0.69684435  0.55779098    -0.00500
C1059       C  0.07729124  0.71854463  0.57270537    -0.13500
C1060       C  0.09117445  0.70440432  0.59170779     0.00000
C1061       C  0.03823959  0.63700674  0.54736077     0.39300
C1062       C  0.10872472  0.72772832  0.60668974     0.35900
C1063       C  0.16343067  0.65722062  0.60426795     0.35700
C1064       C  0.06110261  0.61716846  0.66688472     0.36400
N1065       N  0.02392419  0.61844157  0.53538763    -0.44400
N1066       N  0.12295394  0.74623971  0.61873232    -0.44800
N1067       N  0.03945671  0.60947648  0.67918815    -0.42200
N1068       N  0.18426099  0.66390325  0.59125950    -0.43600
H1069       H  0.17701813  0.63280641  0.64324995     0.12500
H1070       H  0.04837538  0.64355483  0.62856858     0.09000
H1071       H  0.06681528  0.61838013  0.58449804     0.10100
H1072       H  0.08034086  0.74651468  0.56940986     0.15900
C1073       C  0.42496006  0.81150136  0.61619197    -0.02300
C1074       C  0.45728696  0.79289300  0.61541254     0.06300
C1075       C  0.47679171  0.78813957  0.63426867    -0.08300
C1076       C  0.46450496  0.80158066  0.65384765     0.03700
C1077       C  0.43175661  0.81952594  0.65479870    -0.15500
C1078       C  0.41208015  0.82415323  0.63594196    -0.08800
C1079       C  0.47182164  0.77864482  0.59507466     0.04700
C1080       C  0.49318343  0.80049394  0.58237253    -0.09900
C1081       C  0.50893022  0.78749227  0.56358440    -0.00300
C1082       C  0.00323921  0.75210459  0.55729490    -0.00500
C1083       C  0.98191620  0.73020161  0.57003054    -0.13500
C1084       C  0.46626277  0.74319457  0.58887807     0.00000
C1085       C  0.53178675  0.81048432  0.55135980     0.39300
C1086       C  0.94467737  0.71978806  0.60163833     0.35900
C1087       C  0.40510026  0.81845037  0.59688445     0.35700
C1088       C  0.48578018  0.79627010  0.67282630     0.36400
N1089       N  0.55026904  0.82876029  0.54156999    -0.44400
N1090       N  0.92736659  0.70101810  0.61186162    -0.44800
N1091       N  0.00286277  0.79219119  0.68802767    -0.42200
N1092       N  0.38941758  0.82429983  0.58134936    -0.43600
H1093       H  0.38705592  0.83813615  0.63660129     0.12500
H1094       H  0.00179432  0.77408197  0.63362622     0.09000
H1095       H  0.49790978  0.82759675  0.58732769     0.10100
H1096       H  0.97748948  0.70298212  0.56519396     0.15900
C1097       C  0.05556274  0.77450158  0.94202473    -0.02300
C1098       C  0.09260997  0.77403843  0.93902164     0.06300
C1099       C  0.11407515  0.75948963  0.95505716    -0.08300
C1100       C  0.09931604  0.74559327  0.97388217     0.03700
C1101       C  0.06212533  0.74567239  0.97687519    -0.15500
C1102       C  0.04069931  0.76037069  0.96077956    -0.08800
C1103       C  0.10947058  0.78931021  0.91949674     0.04700
C1104       C  0.10528412  0.82547461  0.91520037    -0.09900
C1105       C  0.11903251  0.84055824  0.89641249    -0.00300
C1106       C  0.13756628  0.81930171  0.88144855    -0.00500
C1107       C  0.14326731  0.78341743  0.88638030    -0.13500
C1108       C  0.12937649  0.76835332  0.90510838     0.00000
C1109       C  0.11404000  0.87795074  0.89306251     0.39300
C1110       C  0.13451284  0.73098321  0.90867444     0.35900
C1111       C  0.03228697  0.78945045  0.92609213     0.35700
C1112       C  0.12314203  0.73178932  0.98990516     0.36400
N1113       N  0.11009262  0.90793470  0.89035581    -0.44400
N1114       N  0.13868612  0.70105663  0.91151388    -0.44800
N1115       N  0.14247982  0.72130974  0.00279319    -0.42200
N1116       N  0.01378043  0.80173411  0.91334835    -0.43600
H1117       H  0.01225326  0.76141228  0.96303592     0.12500
H1118       H  0.14258504  0.75947685  0.95297565     0.09000
H1119       H  0.09083454  0.84192082  0.92650590     0.10100
H1120       H  0.15731377  0.76652558  0.87513204     0.15900
C1121       C  0.01103327  0.65543738  0.94470364    -0.02300
C1122       C  0.47482120  0.65937218  0.93973828     0.06300
C1123       C  0.45295885  0.67875963  0.95363018    -0.08300
C1124       C  0.46664582  0.69467290  0.97209631     0.03700
C1125       C  0.50300576  0.69130264  0.97695517    -0.15500
C1126       C  0.02484735  0.67144971  0.96322093    -0.08800
C1127       C  0.45935563  0.64546356  0.91954227     0.04700
C1128       C  0.45529411  0.60886278  0.91663679    -0.09900
C1129       C  0.44017454  0.59529186  0.89774866    -0.00300
C1130       C  0.42937504  0.61856306  0.88135338    -0.00500
C1131       C  0.43256278  0.65518106  0.88463997    -0.13500
C1132       C  0.44730071  0.66871281  0.90350404     0.00000
C1133       C  0.43444336  0.55768242  0.89592591     0.39300
C1134       C  0.45054011  0.70658694  0.90585851     0.35900
C1135       C  0.03458366  0.63571066  0.93088059     0.35700
C1136       C  0.44288561  0.71478526  0.98561699     0.36400
N1137       N  0.42933687  0.52761105  0.89446424    -0.44400
N1138       N  0.45300366  0.73690731  0.90785578    -0.44800
N1139       N  0.42373090  0.73068509  0.99648678    -0.42200
N1140       N  0.05358689  0.61985225  0.91989118    -0.43600
H1141       H  0.05266651  0.66831359  0.96706008     0.12500
H1142       H  0.42510318  0.68180593  0.94984194     0.09000
H1143       H  0.46357422  0.59097132  0.92923787     0.10100
H1144       H  0.42454984  0.67337549  0.87212794     0.15900
C1145       C  0.35564392  0.49887967  0.58457349    -0.02300
C1146       C  0.33271897  0.51557341  0.59935542     0.06300
C1147       C  0.29780001  0.52288943  0.59327168    -0.08300
C1148       C  0.28521586  0.01299037  0.57299498     0.03700
C1149       C  0.30766512  0.99484619  0.55849745    -0.15500
C1150       C  0.34303686  0.48880301  0.56429628    -0.08800
C1151       C  0.34510597  0.52777215  0.62073076     0.04700
C1152       C  0.34797900  0.56420169  0.62445113    -0.09900
C1153       C  0.35952065  0.57725560  0.64429007    -0.00300
C1154       C  0.36820876  0.55355524  0.66097177    -0.00500
C1155       C  0.36540358  0.51700938  0.65720258    -0.13500
C1156       C  0.35371134  0.50399091  0.63732486     0.00000
C1157       C  0.36385615  0.61499017  0.64667343     0.39300
C1158       C  0.34995959  0.96628031  0.63447786     0.35900
C1159       C  0.39227011  0.49234517  0.58976259     0.35700
C1160       C  0.24954070  0.02274550  0.56728202     0.36400
N1161       N  0.36748216  0.64522229  0.64850955    -0.44400
N1162       N  0.34696225  0.93604668  0.63224557    -0.44800
N1163       N  0.22090933  0.03081695  0.56292188    -0.42200
N1164       N  0.42162558  0.48713737  0.59395812    -0.43600
H1165       H  0.36058342  0.47539280  0.55313053     0.12500
H1166       H  0.28038518  0.53658506  0.60439739     0.09000
H1167       H  0.34159920  0.58250646  0.61165389     0.10100
H1168       H  0.37182883  0.49860254  0.66992581     0.15900
C1169       C  0.20603058  0.92741917  0.63517752    -0.02300
C1170       C  0.21570757  0.90308000  0.61897970     0.06300
C1171       C  0.21430351  0.86677256  0.62333438    -0.08300
C1172       C  0.20321457  0.85443284  0.64342668     0.03700
C1173       C  0.19312704  0.87876771  0.65961233    -0.15500
C1174       C  0.19438158  0.91511735  0.65516213    -0.08800
C1175       C  0.22823855  0.91478633  0.59754966     0.04700
C1176       C  0.26315467  0.90714920  0.59141639    -0.09900
C1177       C  0.27629217  0.91811438  0.57149836    -0.00300
C1178       C  0.25443522  0.93754042  0.55747340    -0.00500
C1179       C  0.21896667  0.94349313  0.56311114    -0.13500
C1180       C  0.20579157  0.93248326  0.58302691     0.00000
C1181       C  0.31194666  0.90840093  0.56557902     0.39300
C1182       C  0.16916775  0.93943512  0.58814572     0.35900
C1183       C  0.20919724  0.96507777  0.63198309     0.35700
C1184       C  0.20131898  0.81670094  0.64667310     0.36400
N1185       N  0.34049527  0.90049309  0.56082852    -0.44400
N1186       N  0.13983389  0.94511228  0.59225769    -0.44800
N1187       N  0.19982663  0.78644778  0.64920528    -0.42200
N1188       N  0.21182632  0.99526368  0.62950417    -0.43600
H1189       H  0.18712445  0.93403014  0.66754126     0.12500
H1190       H  0.22175062  0.84800281  0.61090997     0.09000
H1191       H  0.28023875  0.89274695  0.60230199     0.10100
H1192       H  0.20185351  0.95773864  0.55217557     0.15900
C1193       C  0.20473359  0.57738167  0.11924147    -0.02300
C1194       C  0.20706712  0.54039623  0.11624168     0.06300
C1195       C  0.19467264  0.51798955  0.13245745    -0.08300
C1196       C  0.18000650  0.53165209  0.15138401     0.03700
C1197       C  0.17710309  0.56870013  0.15434378    -0.15500
C1198       C  0.18985568  0.59119397  0.13818596    -0.08800
C1199       C  0.22339314  0.52436819  0.09670457     0.04700
C1200       C  0.25905738  0.53135515  0.09205191    -0.09900
C1201       C  0.27536001  0.51697242  0.07376836    -0.00300
C1202       C  0.25593775  0.49472481  0.05984153    -0.00500
C1203       C  0.22043512  0.98727770  0.06468242    -0.13500
C1204       C  0.20414846  0.00166855  0.08295928     0.00000
C1205       C  0.31147887  0.52684726  0.06930918     0.39300
C1206       C  0.16746328  0.99333788  0.08701670     0.35900
C1207       C  0.21729925  0.60163892  0.10308526     0.35700
C1208       C  0.17053755  0.50693557  0.16807907     0.36400
N1209       N  0.34039506  0.53541098  0.06610803    -0.44400
N1210       N  0.13811241  0.98650695  0.09032908    -0.44800
N1211       N  0.16312456  0.48726193  0.18155050    -0.42200
N1212       N  0.22755297  0.62104252  0.09016534    -0.43600
H1213       H  0.18829712  0.61959594  0.14039934     0.12500
H1214       H  0.19730061  0.48960433  0.13052466     0.09000
H1215       H  0.27414477  0.54838412  0.10268970     0.10100
H1216       H  0.20532235  0.97031557  0.05401575     0.15900
C1217       C  0.07499043  0.64659240  0.45573682    -0.02300
C1218       C  0.08952317  0.66879520  0.43991876     0.06300
C1219       C  0.09261547  0.70513396  0.44394202    -0.08300
C1220       C  0.08015583  0.71974981  0.46316622     0.03700
C1221       C  0.06303129  0.69795001  0.47830961    -0.15500
C1222       C  0.06163076  0.66130369  0.47470883    -0.08800
C1223       C  0.09965411  0.65506601  0.41854792     0.04700
C1224       C  0.07287515  0.64295905  0.40483408    -0.09900
C1225       C  0.08064432  0.63216747  0.38386083    -0.00300
C1226       C  0.11590493  0.63383534  0.37626946    -0.00500
C1227       C  0.14275150  0.64542160  0.39023062    -0.13500
C1228       C  0.13493209  0.65571649  0.41129481     0.00000
C1229       C  0.05167211  0.62097336  0.37033976     0.39300
C1230       C  0.16352675  0.66598996  0.42534749     0.35900
C1231       C  0.07431643  0.60869076  0.45297238     0.35700
C1232       C  0.08657450  0.75674695  0.46731199     0.36400
N1233       N  0.02842372  0.61192627  0.35956020    -0.44400
N1234       N  0.18647111  0.67395978  0.43665912    -0.44800
N1235       N  0.09216297  0.78635409  0.47057297    -0.42200
N1236       N  0.07421626  0.57830605  0.45077482    -0.43600
H1237       H  0.04965206  0.64423996  0.48665266     0.12500
H1238       H  0.10458325  0.72211495  0.43194526     0.09000
H1239       H  0.04566848  0.64264776  0.41044064     0.10100
H1240       H  0.17000008  0.64606892  0.38476010     0.15900
C1241       C  0.32454273  0.55613773  0.40404826    -0.02300
C1242       C  0.34823703  0.54342031  0.41969276     0.06300
C1243       C  0.38476962  0.54556881  0.41586562    -0.08300
C1244       C  0.39792066  0.55990419  0.39669348     0.03700
C1245       C  0.37425822  0.57249177  0.38092323    -0.15500
C1246       C  0.33765224  0.57078752  0.38498905    -0.08800
C1247       C  0.33546379  0.52759369  0.44009996     0.04700
C1248       C  0.33968436  0.99118846  0.44343976    -0.09900
C1249       C  0.32772772  0.97525212  0.46243131    -0.00300
C1250       C  0.31075575  0.99590641  0.47838446    -0.00500
C1251       C  0.30785818  0.53255528  0.47530012    -0.13500
C1252       C  0.31981504  0.54842245  0.45634994     0.00000
C1253       C  0.33452618  0.93806696  0.46544539     0.39300
C1254       C  0.31609501  0.58618168  0.45401976     0.35900
C1255       C  0.28669870  0.55309520  0.40682120     0.35700
C1256       C  0.43576533  0.56209448  0.39381588     0.36400
N1257       N  0.34026421  0.90826116  0.46768155    -0.44400
N1258       N  0.31308965  0.61645033  0.45215603    -0.44800
N1259       N  0.46610108  0.56392896  0.39150654    -0.42200
N1260       N  0.25638039  0.55056372  0.40898624    -0.43600
H1261       H  0.31910048  0.57969129  0.37288080     0.12500
H1262       H  0.40306081  0.53601119  0.42793520     0.09000
H1263       H  0.35240565  0.97520338  0.43115928     0.10100
H1264       H  0.29545868  0.54875756  0.48759715     0.15900
C1265       C  0.08285309  0.73720891  0.09174795    -0.02300
C1266       C  0.07908381  0.77318774  0.09735757     0.06300
C1267       C  0.06471706  0.79678407  0.08238396    -0.08300
C1268       C  0.05329211  0.78488241  0.06224542     0.03700
C1269       C  0.05634281  0.74874534  0.05683533    -0.15500
C1270       C  0.07174433  0.72538380  0.07157064    -0.08800
C1271       C  0.09063058  0.78669278  0.11862114     0.04700
C1272       C  0.12644300  0.78404001  0.12415863    -0.09900
C1273       C  0.13854869  0.79561690  0.14418679    -0.00300
C1274       C  0.11440575  0.80986495  0.15932082    -0.00500
C1275       C  0.07864680  0.81341930  0.15348531    -0.13500
C1276       C  0.06666298  0.80212542  0.13330855     0.00000
C1277       C  0.17613771  0.79414234  0.14823837     0.39300
C1278       C  0.02963964  0.80622620  0.12814621     0.35900
C1279       C  0.09725269  0.71178756  0.10660626     0.35700
C1280       C  0.53773345  0.81006455  0.04767791     0.36400
N1281       N  0.20628490  0.79317083  0.15142209    -0.44400
N1282       N  0.00005261  0.80980009  0.12390705    -0.44800
N1283       N  0.52542521  0.83035776  0.03600542    -0.42200
N1284       N  0.10895654  0.69149978  0.11850689    -0.43600
H1285       H  0.07450758  0.69765836  0.06740388     0.12500
H1286       H  0.06227625  0.82456504  0.08651370     0.09000
H1287       H  0.14510151  0.77313722  0.11264216     0.10100
H1288       H  0.05987987  0.82464971  0.16480776     0.15900
C1289       C  0.46846374  0.70589541  0.08988963    -0.02300
C1290       C  0.47287332  0.67024091  0.09615021     0.06300
C1291       C  0.48973012  0.64677004  0.08190951    -0.08300
C1292       C  0.50344069  0.65841935  0.06227436     0.03700
C1293       C  0.49990777  0.69422013  0.05635780    -0.15500
C1294       C  0.48187363  0.71744211  0.07014359    -0.08800
C1295       C  0.46062506  0.65708915  0.11749972     0.04700
C1296       C  0.42501192  0.66117959  0.12341336    -0.09900
C1297       C  0.41263124  0.64989042  0.14348352    -0.00300
C1298       C  0.43612170  0.63348758  0.15814220    -0.00500
C1299       C  0.47155719  0.62863003  0.15195066    -0.13500
C1300       C  0.48395112  0.64034077  0.13198752     0.00000
C1301       C  0.37549087  0.65470982  0.14817953     0.39300
C1302       C  0.02096483  0.63551662  0.12701551     0.35900
C1303       C  0.45114507  0.73140207  0.10360764     0.35700
C1304       C  0.52226353  0.63354431  0.04883359     0.36400
N1305       N  0.34571952  0.65871989  0.15185175    -0.44400
N1306       N  0.05058365  0.63133340  0.12301071    -0.44800
N1307       N  0.53737171  0.61371144  0.03799514    -0.42200
N1308       N  0.43703576  0.75193134  0.11445328    -0.43600
H1309       H  0.97877016  0.74508905  0.06554613     0.12500
H1310       H  0.49267857  0.61900183  0.08634613     0.09000
H1311       H  0.40662346  0.67322253  0.11217656     0.10100
H1312       H  0.49000790  0.61622437  0.16296501     0.15900
C1313       C  0.23107066  0.88646291  0.40283873    -0.02300
C1314       C  0.20849576  0.89891048  0.41923507     0.06300
C1315       C  0.17176059  0.89882490  0.41588175    -0.08300
C1316       C  0.15734420  0.88652379  0.39647358     0.03700
C1317       C  0.17993956  0.87429215  0.37995646    -0.15500
C1318       C  0.21672565  0.87422156  0.38348769    -0.08800
C1319       C  0.22288118  0.91275402  0.43979523     0.04700
C1320       C  0.22009042  0.94900266  0.44427336    -0.09900
C1321       C  0.23421670  0.96332191  0.46320224    -0.00300
C1322       C  0.25229313  0.94125892  0.47780260    -0.00500
C1323       C  0.25405422  0.90479605  0.47356963    -0.13500
C1324       C  0.23949502  0.89044321  0.45481242     0.00000
C1325       C  0.22820779  0.00027422  0.46770195     0.39300
C1326       C  0.24125695  0.85268675  0.45153364     0.35900
C1327       C  0.26908777  0.88694733  0.40530891     0.35700
C1328       C  0.11935247  0.88541690  0.39423428     0.36400
N1329       N  0.22308407  0.52988889  0.47120883    -0.44400
N1330       N  0.24261745  0.82240645  0.44897853    -0.44800
N1331       N  0.08889734  0.88426744  0.39244457    -0.42200
N1332       N  0.29951582  0.88731505  0.40738259    -0.43600
H1333       H  0.23449384  0.86538109  0.37087230     0.12500
H1334       H  0.15432461  0.90816151  0.42854142     0.09000
H1335       H  0.20670416  0.96612218  0.43295388     0.10100
H1336       H  0.26707423  0.88750417  0.48494872     0.15900
C1337       C  0.30606902  0.90408208  0.09153052    -0.02300
C1338       C  0.34238023  0.90793777  0.09632356     0.06300
C1339       C  0.36394200  0.92743749  0.08235191    -0.08300
C1340       C  0.34995703  0.94317807  0.06392879     0.03700
C1341       C  0.31358833  0.93966454  0.05916965    -0.15500
C1342       C  0.29197757  0.91996419  0.07307923    -0.08800
C1343       C  0.35832707  0.89311205  0.11619184     0.04700
C1344       C  0.35874456  0.85635745  0.11943981    -0.09900
C1345       C  0.37302586  0.84186289  0.13827472    -0.00300
C1346       C  0.38775788  0.86433922  0.15407120    -0.00500
C1347       C  0.38830626  0.90097920  0.15037154    -0.13500
C1348       C  0.37344575  0.91544282  0.13186044     0.00000
C1349       C  0.37243278  0.80398070  0.14094313     0.39300
C1350       C  0.37227137  0.95346842  0.12991876     0.35900
C1351       C  0.28271021  0.88453228  0.10550274     0.35700
C1352       C  0.37336806  0.96363277  0.05048997     0.36400
N1353       N  0.37189904  0.77362851  0.14316279    -0.44400
N1354       N  0.37121338  0.98393291  0.12845714    -0.44800
N1355       N  0.39220513  0.98024490  0.03988877    -0.42200
N1356       N  0.26410618  0.86874166  0.11671092    -0.43600
H1357       H  0.26414352  0.91674070  0.06940263     0.12500
H1358       H  0.39183034  0.93051759  0.08594890     0.09000
H1359       H  0.34761242  0.83901189  0.10730609     0.10100
H1360       H  0.39879320  0.91874145  0.16250327     0.15900
C1361       C  0.99115829  0.79781783  0.45281546    -0.02300
C1362       C  0.47556988  0.77417543  0.43803184     0.06300
C1363       C  0.47170487  0.73851460  0.44374288    -0.08300
C1364       C  0.48437841  0.72602939  0.46347489     0.03700
C1365       C  0.00229071  0.74920823  0.47758855    -0.15500
C1366       C  0.00442039  0.78521673  0.47235539    -0.08800
C1367       C  0.46405733  0.78589762  0.41633267     0.04700
C1368       C  0.48972929  0.79698798  0.40150369    -0.09900
C1369       C  0.48025325  0.80738106  0.38068304    -0.00300
C1370       C  0.44433756  0.80626678  0.37423522    -0.00500
C1371       C  0.41872942  0.79507884  0.38916213    -0.13500
C1372       C  0.42822149  0.78540828  0.41010022     0.00000
C1373       C  0.50810952  0.81815963  0.36620019     0.39300
C1374       C  0.40060533  0.77668601  0.42522258     0.35900
C1375       C  0.99285437  0.83524229  0.44853487     0.35700
C1376       C  0.47734552  0.68979967  0.46927455     0.36400
N1377       N  0.03049645  0.82691287  0.35467344    -0.44400
N1378       N  0.37842725  0.77007340  0.43740051    -0.44800
N1379       N  0.47129693  0.66085167  0.47396696    -0.42200
N1380       N  0.99386329  0.86529994  0.44522196    -0.43600
H1381       H  0.01698628  0.80343975  0.48345799     0.12500
H1382       H  0.45885699  0.72038084  0.43270352     0.09000
H1383       H  0.01735866  0.79731641  0.40621166     0.10100
H1384       H  0.39102820  0.79482870  0.38466563     0.15900
C1385       C  0.93251813  0.31768081  0.35253707     0.79900
N1386       N  0.90424576  0.30181872  0.34296767    -0.78400
C1387       C  0.89228437  0.31337783  0.32363139     0.82400
N1388       N  0.90835653  0.34118193  0.31398084    -0.78300
C1389       C  0.93647297  0.35720929  0.32338071     0.82500
N1390       N  0.94843284  0.34545998  0.34263376    -0.80000
C1391       C  0.89893283  0.35167512  0.17554236     0.79900
N1392       N  0.92364171  0.37037314  0.18661365    -0.78400
C1393       C  0.92824032  0.36526316  0.20794614     0.82400
N1394       N  0.90741165  0.34180406  0.21845581    -0.78300
C1395       C  0.88368475  0.32184608  0.20745145     0.82500
N1396       N  0.87911138  0.32719894  0.18606692    -0.80000
C1397       C  0.66667791  0.36292524  0.35857993     0.79900
N1398       N  0.68435798  0.33725842  0.34765057    -0.78400
C1399       C  0.67673142  0.33036003  0.32680048     0.82400
N1400       N  0.65194925  0.34991418  0.31657239    -0.78300
C1401       C  0.63312362  0.37471070  0.32746556     0.82500
N1402       N  0.64080255  0.38153812  0.34842103    -0.80000
C1403       C  0.92476536  0.12150700  0.17985917     0.79900
N1404       N  0.89787244  0.13810116  0.19026063    -0.78400
C1405       C  0.88722395  0.12720791  0.20996231     0.82400
N1406       N  0.90357655  0.09955077  0.21948155    -0.78300
C1407       C  0.93091447  0.08312003  0.20947558     0.82500
N1408       N  0.94153868  0.09414868  0.18970699    -0.80000
N1409       N  0.48549004  0.43161439  0.22656946    -0.06400
N1410       N  0.47870497  0.40689554  0.21210991    -0.58500
N1411       N  0.95984636  0.01228446  0.24155299    -0.06100
N1412       N  0.93668448  0.03778604  0.23815370    -0.60700
N1413       N  0.48433418  0.01247380  0.22648153    -0.05700
N1414       N  0.47828757  0.03785727  0.21247903    -0.58500
N1415       N  0.96178493  0.43075698  0.24205215    -0.05400
N1416       N  0.93880976  0.40511187  0.23868548    -0.61000
C1417       C  0.94987070  0.39027510  0.22010257     0.95800
C1418       C  0.94859446  0.05343725  0.22000441     0.95500
N1419       N  0.48222226  0.01244248  0.30796665    -0.06600
N1420       N  0.47275318  0.03511409  0.32316280    -0.59100
N1421       N  0.96154270  0.43086359  0.29239835    -0.04700
N1422       N  0.94000529  0.40381849  0.29533257    -0.60400
N1423       N  0.48592422  0.43157583  0.30746515    -0.06600
N1424       N  0.48142938  0.40517965  0.32101611    -0.59400
N1425       N  0.95874745  0.01230239  0.29237489    -0.04400
N1426       N  0.93330539  0.03527394  0.29640164    -0.60400
Mn1427     Mn  0.95946023  0.47162936  0.26706771     1.18400
C1428       C  0.94249369  0.04949239  0.31552134     0.97900
C1429       C  0.95278526  0.38807195  0.31318914     0.98500
N1430       N  0.56810578  0.01396426  0.22596846    -0.06600
N1431       N  0.57648926  0.03698709  0.21083862    -0.62900
N1432       N  0.59300348  0.43356572  0.24157198    -0.05400
N1433       N  0.61592741  0.40769188  0.23845447    -0.63600
N1434       N  0.56871307  0.43319650  0.22646831    -0.06100
N1435       N  0.57458281  0.40726391  0.21270221    -0.63200
N1436       N  0.59151793  0.01502927  0.24156245    -0.05000
N1437       N  0.61576621  0.03922374  0.23764806    -0.63900
Mn1438     Mn  0.52659432  0.47287428  0.22573401     1.10700
C1439       C  0.60590944  0.05297346  0.21860215     0.99100
C1440       C  0.60400115  0.39156638  0.22042753     0.99200
N1441       N  0.56970503  0.43482287  0.30792000    -0.06200
N1442       N  0.57927084  0.41253563  0.32318390    -0.61500
N1443       N  0.59059648  0.01559567  0.29197928    -0.05500
N1444       N  0.61309104  0.04171284  0.29517923    -0.58300
N1445       N  0.56631127  0.01523092  0.30716923    -0.06800
N1446       N  0.57192775  0.04092572  0.32113138    -0.61100
N1447       N  0.59310684  0.43464047  0.29223770    -0.05800
N1448       N  0.61856322  0.41181594  0.29625322    -0.58300
Mn1449     Mn  0.52600502  0.47356943  0.30828178     1.20200
Mn1450     Mn  0.59291068  0.47468734  0.26683224     1.10100
Cl1451     Cl  0.52621589  0.47330894  0.26700635    -0.86300
C1452       C  0.60952091  0.39809243  0.31546616     0.96100
C1453       C  0.60103921  0.05722267  0.31333729     0.95900
C1454       C  0.62583888  0.32157944  0.18099760     0.79900
N1455       N  0.65286686  0.30494625  0.19115698    -0.78400
C1456       C  0.66431986  0.31642177  0.21060133     0.82400
N1457       N  0.64855919  0.34470151  0.22005731    -0.78300
C1458       C  0.62108455  0.36109804  0.21023139     0.82500
N1459       N  0.60976432  0.34948366  0.19074499    -0.80000
C1460       C  0.88640282  0.08453161  0.35944831     0.79900
N1461       N  0.91205760  0.06618868  0.34881038    -0.78400
C1462       C  0.91889366  0.07284655  0.32777848     0.82400
N1463       N  0.89948468  0.09743989  0.31725703    -0.78300
C1464       C  0.87485879  0.11686965  0.32790090     0.82500
N1465       N  0.86794718  0.10997440  0.34887645    -0.80000
C1466       C  0.62562704  0.12378685  0.35407334     0.79900
N1467       N  0.65241241  0.14086278  0.34388836    -0.78400
C1468       C  0.66229093  0.13101660  0.32379138     0.82400
N1469       N  0.64559430  0.10377103  0.31389777    -0.78300
C1470       C  0.61867758  0.08679394  0.32391246     0.82500
N1471       N  0.60884076  0.09672636  0.34398638    -0.80000
C1472       C  0.66371106  0.08388556  0.17483220     0.79900
N1473       N  0.63682793  0.06753339  0.18542072    -0.78400
C1474       C  0.62930601  0.07595039  0.20610921     0.82400
N1475       N  0.64916448  0.10057544  0.21637824    -0.78300
C1476       C  0.67476315  0.11852746  0.20568682     0.83300
N1477       N  0.68237164  0.10981660  0.18496921    -0.80000
N1478       N  0.81796609  0.26357353  0.30751242    -0.06400
N1479       N  0.84415987  0.26835573  0.32125128    -0.58500
N1480       N  0.73739150  0.29040179  0.29188848    -0.06100
N1481       N  0.71414097  0.31568448  0.29558293    -0.60700
N1482       N  0.73699513  0.26706490  0.30748939    -0.05700
N1483       N  0.71385997  0.27646198  0.32239791    -0.58500
N1484       N  0.81888893  0.28769104  0.29232655    -0.05400
N1485       N  0.84586240  0.30930919  0.29538276    -0.61000
C1486       C  0.86135941  0.29689948  0.31343118     0.95800
C1487       C  0.69945846  0.30647727  0.31451580     0.95500
N1488       N  0.73663854  0.26431947  0.22657121    -0.06600
N1489       N  0.71030462  0.26969279  0.21308265    -0.59100
N1490       N  0.81875973  0.28755115  0.24175263    -0.04700
N1491       N  0.84390786  0.31094124  0.23815513    -0.60400
N1492       N  0.81775574  0.26394255  0.22621534    -0.06600
N1493       N  0.84189088  0.27120298  0.21146993    -0.59400
N1494       N  0.73709818  0.28892753  0.24157351    -0.04400
N1495       N  0.71088889  0.31148458  0.23866707    -0.60400
Mn1496     Mn  0.77809720  0.28963600  0.26685926     1.18400
C1497       C  0.69447035  0.29909813  0.22088161     0.97900
C1498       C  0.85826572  0.30028534  0.21935164     0.98500
N1499       N  0.73393769  0.18331719  0.30705697    -0.06600
N1500       N  0.70804385  0.17791351  0.32090826    -0.62900
N1501       N  0.81480850  0.15639267  0.29256650    -0.05400
N1502       N  0.83779700  0.13110223  0.29659783    -0.63600
N1503       N  0.81456834  0.17987597  0.30819955    -0.06100
N1504       N  0.83698939  0.17054739  0.32346588    -0.63200
N1505       N  0.73365271  0.15891975  0.29192228    -0.05000
N1506       N  0.70740644  0.13654597  0.29505916    -0.63900
Mn1507     Mn  0.77582499  0.22350310  0.30824204     1.10700
C1508       C  0.69171502  0.14879240  0.31312118     0.99100
C1509       C  0.85160501  0.14036553  0.31576704     0.99200
N1510       N  0.81673307  0.18074975  0.22686796    -0.06200
N1511       N  0.84236863  0.17455466  0.21299305    -0.61500
N1512       N  0.73516997  0.15720506  0.24141703    -0.05500
N1513       N  0.71173125  0.13234929  0.23720197    -0.58300
N1514       N  0.73626664  0.18043721  0.22576375    -0.06800
N1515       N  0.71404605  0.17131964  0.21028938    -0.61100
N1516       N  0.81637541  0.15656766  0.24200747    -0.05800
N1517       N  0.84197580  0.13339354  0.23879712    -0.58300
Mn1518     Mn  0.77678245  0.22245855  0.22571177     1.20200
Mn1519     Mn  0.77499719  0.15643232  0.26700951     1.10100
Cl1520     Cl  0.77640475  0.22299932  0.26696593    -0.86300
C1521       C  0.85788511  0.14509066  0.22068720     0.96100
C1522       C  0.69857482  0.14159450  0.21788743     0.95900
C1523       C  0.76814454  0.45490127  0.49809388     0.02000
C1524       C  0.79570022  0.48042176  0.49842790     0.02000
C1525       C  0.80818132  0.49293722  0.51835452    -0.18600
C1526       C  0.79438827  0.48018527  0.53779685     0.02000
C1527       C  0.76842001  0.45330155  0.53735891     0.02000
C1528       C  0.75528441  0.44139945  0.51759534    -0.18600
H1529       H  0.73472237  0.42140047  0.51740251     0.04000
H1530       H  0.82863004  0.01303412  0.51873818     0.04000
C1531       C  0.54231003  0.23435531  0.03634385     0.02000
C1532       C  0.51580746  0.20801107  0.03617628     0.02000
C1533       C  0.00387047  0.19468262  0.01652383    -0.18600
C1534       C  0.51788583  0.20660743  0.99696755     0.02000
C1535       C  0.54539478  0.23217862  0.99703801     0.02000
C1536       C  0.55665146  0.24616307  0.01684171    -0.18600
H1537       H  0.57697697  0.26637685  0.01713216     0.04000
H1538       H  0.98326261  0.17469812  0.01644757     0.04000
C1539       C  0.54709171  0.21236162  0.49825969     0.02000
C1540       C  0.51865102  0.23677061  0.49797586     0.02000
C1541       C  0.50544913  0.24978988  0.51752681    -0.18600
C1542       C  0.51883376  0.23786058  0.53723721     0.02000
C1543       C  0.54604566  0.21226398  0.53748879     0.02000
C1544       C  0.56026168  0.20038132  0.51797103    -0.18600
H1545       H  0.58175733  0.18137721  0.51812857     0.04000
H1546       H  0.98398134  0.26882164  0.51743279     0.04000
C1547       C  0.77103793  0.48051287  0.03949117     0.02000
C1548       C  0.79825209  0.45473114  0.03917743     0.02000
C1549       C  0.81071922  0.44202370  0.01932570    -0.18600
C1550       C  0.79690164  0.45456687  0.99993075     0.02000
C1551       C  0.76992785  0.48037906  0.00014080     0.02000
C1552       C  0.75712513  0.49288338  0.01993563    -0.18600
H1553       H  0.73646204  0.01274422  0.02012353     0.04000
H1554       H  0.83116107  0.42192343  0.01895246     0.04000
C1555       C  0.87465802  0.37594854  0.85236728     0.79900
N1556       N  0.85815895  0.34871008  0.84223064    -0.78400
C1557       C  0.87023946  0.33692133  0.82293048     0.82400
N1558       N  0.89873336  0.35254226  0.81374096    -0.78300
C1559       C  0.91515533  0.37990481  0.82369624     0.82500
N1560       N  0.90335951  0.39132385  0.84313381    -0.80000
C1561       C  0.91782048  0.10601098  0.85995281     0.79900
N1562       N  0.93659694  0.08039970  0.84961612    -0.78400
C1563       C  0.93117792  0.07408224  0.82838507     0.82400
N1564       N  0.90754959  0.09401711  0.81737748    -0.78300
C1565       C  0.88773611  0.11859557  0.82775879     0.82500
N1566       N  0.89329836  0.12488842  0.84892507    -0.80000
C1567       C  0.68708732  0.06297411  0.85389383     0.79900
N1568       N  0.65966004  0.04689536  0.84368961    -0.78400
C1569       C  0.64807534  0.05890013  0.82441381     0.82400
N1570       N  0.66398141  0.08725180  0.81524757    -0.78300
C1571       C  0.69154327  0.10351523  0.82515608     0.82500
N1572       N  0.70288368  0.09149090  0.84456105    -0.80000
C1573       C  0.64827559  0.33237467  0.85985586     0.79900
N1574       N  0.62823550  0.35684540  0.84944388    -0.78400
C1575       C  0.63382818  0.36369462  0.82828570     0.82400
N1576       N  0.65882336  0.34521691  0.81734881    -0.78300
C1577       C  0.67978204  0.32178937  0.82774930     0.82500
N1578       N  0.67419420  0.31519098  0.84885903    -0.80000
C1579       C  0.63796570  0.11109534  0.67674239     0.79900
N1580       N  0.66493041  0.12841179  0.68679427    -0.78400
C1581       C  0.67449741  0.11932966  0.70708637     0.82400
N1582       N  0.65662522  0.09335275  0.71739985    -0.78300
C1583       C  0.63096647  0.07481415  0.70716061     0.82500
N1584       N  0.62133835  0.08404849  0.68696372    -0.80000
C1585       C  0.88045946  0.06621702  0.68223186     0.79900
N1586       N  0.86479692  0.09454039  0.69176423    -0.78400
C1587       C  0.87653449  0.10666642  0.71101918     0.82400
N1588       N  0.90418907  0.09051602  0.72077494    -0.78300
C1589       C  0.91971169  0.06195808  0.71149153     0.82500
N1590       N  0.90772144  0.04976618  0.69228235    -0.80000
N1591       N  0.82390806  0.25890357  0.72661585    -0.06400
N1592       N  0.83236552  0.28168780  0.71135330    -0.58500
N1593       N  0.84834580  0.17896621  0.74238653    -0.06100
N1594       N  0.87145730  0.15332829  0.73912795    -0.60700
N1595       N  0.82365566  0.17825646  0.72748318    -0.05700
N1596       N  0.82954711  0.15233782  0.71370893    -0.58500
N1597       N  0.84736528  0.26012425  0.74218343    -0.05400
N1598       N  0.87172326  0.28410532  0.73812196    -0.61000
C1599       C  0.86194473  0.29753760  0.71899481     0.95800
C1600       C  0.85932597  0.13701942  0.72122884     0.95500
N1601       N  0.82600055  0.18018546  0.80851434    -0.06600
N1602       N  0.83485586  0.15704315  0.82340715    -0.59100
N1603       N  0.84677013  0.26178816  0.79261922    -0.04700
N1604       N  0.86753019  0.28957904  0.79510631    -0.60400
N1605       N  0.82257756  0.26107309  0.80783722    -0.06600
N1606       N  0.82634120  0.28820326  0.82100829    -0.59400
N1607       N  0.84952796  0.18017200  0.79292157    -0.04400
N1608       N  0.87446535  0.15659844  0.79663522    -0.60400
Mn1609     Mn  0.84899953  0.22027151  0.76756092     1.18400
C1610       C  0.86479353  0.14220832  0.81556402     0.97900
C1611       C  0.85436921  0.30575409  0.81282971     0.98500
N1612       N  0.73907796  0.17810987  0.72719338    -0.06600
N1613       N  0.72899671  0.15638124  0.71163831    -0.62900
N1614       N  0.71604172  0.25861852  0.74300987    -0.05400
N1615       N  0.69317751  0.28447708  0.73986791    -0.63600
N1616       N  0.74025158  0.25858954  0.72778096    -0.06100
N1617       N  0.73433347  0.28416808  0.71391645    -0.63200
N1618       N  0.71600232  0.17742862  0.74305311    -0.05000
N1619       N  0.69039333  0.15479438  0.73888699    -0.63900
Mn1620     Mn  0.78173900  0.21834428  0.72664235     1.10700
C1621       C  0.69892075  0.14164969  0.71939271     0.99100
C1622       C  0.70500772  0.30009473  0.72170034     0.99200
N1623       N  0.73999186  0.25847757  0.80880096    -0.06200
N1624       N  0.73219822  0.28272581  0.82338058    -0.61500
N1625       N  0.71758122  0.17681757  0.79381748    -0.05500
N1626       N  0.69557881  0.15021706  0.79705720    -0.58300
N1627       N  0.74216682  0.17730561  0.80877927    -0.06800
N1628       N  0.73728613  0.15121141  0.82255299    -0.61100
N1629       N  0.71637292  0.25858257  0.79334295    -0.05800
N1630       N  0.69238766  0.28322912  0.79681489    -0.58300
Mn1631     Mn  0.78272270  0.21911869  0.80917046     1.20200
Mn1632     Mn  0.71558986  0.21778311  0.76836476     1.10100
Cl1633     Cl  0.78226527  0.21870545  0.76790928    -0.86300
C1634       C  0.70276038  0.29825856  0.81545142     0.96100
C1635       C  0.70817859  0.13448641  0.81499303     0.95900
C1636       C  0.91809317  0.33275068  0.67550038     0.79900
N1637       N  0.89208771  0.31455125  0.68577530    -0.78400
C1638       C  0.88490167  0.32133996  0.70678679     0.82400
N1639       N  0.90444903  0.34566299  0.71758399    -0.78300
C1640       C  0.92952183  0.36480966  0.70725120     0.82500
N1641       N  0.93672512  0.35786056  0.68630598    -0.80000
C1642       C  0.68147104  0.36722527  0.68120283     0.79900
N1643       N  0.69806719  0.34012409  0.69129048    -0.78400
C1644       C  0.68728948  0.32957384  0.71106954     0.82400
N1645       N  0.65971777  0.34608308  0.72078890    -0.78300
C1646       C  0.64331036  0.37345831  0.71095029     0.82500
N1647       N  0.65429969  0.38408422  0.69122682    -0.80000
N1648       N  0.99040965  0.42847068  0.80851981    -0.06400
N1649       N  0.96362691  0.42425731  0.82190140    -0.58500
N1650       N  0.57136636  0.40153834  0.79354991    -0.06100
N1651       N  0.59488115  0.37659485  0.79740256    -0.60700
N1652       N  0.57130564  0.42512921  0.80912443    -0.05700
N1653       N  0.59437973  0.41628742  0.82413819    -0.58500
N1654       N  0.98984094  0.40410547  0.79337080    -0.05400
N1655       N  0.96250746  0.38287830  0.79606682    -0.61000
C1656       C  0.94649119  0.39579617  0.81387755     0.95800
C1657       C  0.60916430  0.38623160  0.81641176     0.95500
N1658       N  0.57218490  0.42660794  0.72777217    -0.06600
N1659       N  0.59783171  0.42057821  0.71383669    -0.59100
N1660       N  0.99066186  0.40263471  0.74283060    -0.04700
N1661       N  0.96683309  0.37805052  0.73876531    -0.60400
N1662       N  0.99153840  0.42602726  0.72725917    -0.06600
N1663       N  0.96871873  0.41736592  0.71203481    -0.59400
N1664       N  0.57196934  0.40227719  0.74284884    -0.04400
N1665       N  0.59768897  0.37928210  0.73955226    -0.60400
Mn1666     Mn  0.53096990  0.40168490  0.76817655     1.18400
C1667       C  0.61353432  0.39112356  0.72146141     0.97900
C1668       C  0.95315154  0.38772450  0.71965737     0.98500
N1669       N  0.57414807  0.00874662  0.80838706    -0.06600
N1670       N  0.60067789  0.01347482  0.82185533    -0.62900
N1671       N  0.99289565  0.03509580  0.79364992    -0.05400
N1672       N  0.96935035  0.06003313  0.79743057    -0.63600
N1673       N  0.99317164  0.01189980  0.80931865    -0.06100
N1674       N  0.97015574  0.02105808  0.82438141    -0.63200
N1675       N  0.57445548  0.03311478  0.79334438    -0.05000
N1676       N  0.60138095  0.05488788  0.79623623    -0.63900
Mn1677     Mn  0.53228649  0.46855517  0.80951308     1.10700
C1678       C  0.61746807  0.04223710  0.81403350     0.99100
C1679       C  0.95520682  0.05083824  0.81650723     0.99200
N1680       N  0.99142281  0.00964081  0.72802840    -0.06200
N1681       N  0.96553805  0.01525091  0.71427477    -0.61500
N1682       N  0.57286735  0.03392084  0.74295380    -0.05500
N1683       N  0.59581211  0.05919960  0.73887127    -0.58300
N1684       N  0.57204650  0.01075931  0.72715653    -0.06800
N1685       N  0.59399755  0.02046319  0.71166654    -0.61100
N1686       N  0.99162462  0.03411089  0.74311930    -0.05800
N1687       N  0.96567674  0.05688663  0.73996121    -0.58300
Mn1688     Mn  0.53186079  0.46823736  0.72692763     1.20200
Mn1689     Mn  0.53295286  0.03491373  0.76829390     1.10100
Cl1690     Cl  0.53205852  0.46832724  0.76821558    -0.86300
C1691       C  0.94968597  0.04467980  0.72196451     0.96100
C1692       C  0.60902957  0.05036719  0.71948332     0.95900
C1693       C  0.71769580  0.06675132  0.91186517    -0.02300
C1694       C  0.71917687  0.03071445  0.91760648     0.06300
C1695       C  0.70884905  0.00515552  0.90247499    -0.08300
C1696       C  0.69812443  0.01486217  0.88172977     0.03700
C1697       C  0.69817508  0.05093727  0.87563833    -0.15500
C1698       C  0.70792732  0.07646552  0.89098126    -0.08800
C1699       C  0.73196174  0.01906779  0.93912720     0.04700
C1700       C  0.70924545  0.99982034  0.95263928    -0.09900
C1701       C  0.72080275  0.98763986  0.97273772    -0.00300
C1702       C  0.75555594  0.49495035  0.97970184    -0.00500
C1703       C  0.77796263  0.01474950  0.96635994    -0.13500
C1704       C  0.76684594  0.02602991  0.94606686     0.00000
C1705       C  0.69694434  0.96684491  0.98567317     0.39300
C1706       C  0.79230844  0.04312400  0.93224576     0.35900
C1707       C  0.72476938  0.09431221  0.92737266     0.35700
C1708       C  0.68824893  0.98703860  0.86696493     0.36400
N1709       N  0.67785260  0.95016312  0.99606848    -0.44400
N1710       N  0.81278729  0.05666519  0.92115050    -0.44800
N1711       N  0.68024643  0.46451321  0.85531737    -0.42200
N1712       N  0.73024539  0.11641003  0.93982910    -0.43600
H1713       H  0.70704127  0.10425500  0.88682279     0.12500
H1714       H  0.70961755  0.47742822  0.90681989     0.09000
H1715       H  0.68252108  0.99403030  0.94736979     0.10100
H1716       H  0.80455495  0.52079791  0.97164529     0.15900
C1717       C  0.87789839  0.39423752  0.91191664    -0.02300
C1718       C  0.84301835  0.40572781  0.91628168     0.06300
C1719       C  0.81865638  0.40778293  0.89928178    -0.08300
C1720       C  0.82831844  0.39795519  0.87836010     0.03700
C1721       C  0.86323902  0.38689290  0.87405356    -0.15500
C1722       C  0.88778864  0.38541674  0.89088855    -0.08800
C1723       C  0.83174580  0.41653932  0.93830004     0.04700
C1724       C  0.85119918  0.44265845  0.94921327    -0.09900
C1725       C  0.84141431  0.45378030  0.96982592    -0.00300
C1726       C  0.81058337  0.44009492  0.97941708    -0.00500
C1727       C  0.79117168  0.41384748  0.96871803    -0.13500
C1728       C  0.80178998  0.40159017  0.94844202     0.00000
C1729       C  0.86282225  0.47996700  0.98061150     0.39300
C1730       C  0.78203321  0.37317635  0.93859406     0.35900
C1731       C  0.90370860  0.39025719  0.92882389     0.35700
C1732       C  0.80227546  0.40038359  0.86148544     0.36400
N1733       N  0.87993842  0.50101132  0.98923652    -0.44400
N1734       N  0.76633393  0.35035326  0.93066046    -0.44800
N1735       N  0.78138583  0.40232109  0.84796944    -0.42200
N1736       N  0.92428022  0.38721325  0.94244208    -0.43600
H1737       H  0.91456905  0.37649271  0.88767170     0.12500
H1738       H  0.79202250  0.41724094  0.90235553     0.09000
H1739       H  0.87404024  0.45456170  0.94154869     0.10100
H1740       H  0.76762128  0.40305075  0.97621865     0.15900
C1741       C  0.63739344  0.14849546  0.62037495    -0.02300
C1742       C  0.60090192  0.15213593  0.61625121     0.06300
C1743       C  0.57646708  0.14085904  0.63172561    -0.08300
C1744       C  0.58782322  0.12686538  0.65135472     0.03700
C1745       C  0.62451335  0.12408603  0.65580115    -0.15500
C1746       C  0.64888354  0.13513052  0.64014845    -0.08800
C1747       C  0.58750975  0.16797925  0.59602435     0.04700
C1748       C  0.56986806  0.14634516  0.58117933    -0.09900
C1749       C  0.55624585  0.16038697  0.56212200    -0.00300
C1750       C  0.55976487  0.19684719  0.55778988    -0.00500
C1751       C  0.57728076  0.21854943  0.57270881    -0.13500
C1752       C  0.59116328  0.20440862  0.59171125     0.00000
C1753       C  0.53827008  0.13700278  0.54735051     0.39300
C1754       C  0.60869944  0.22773424  0.60669838     0.35900
C1755       C  0.66343120  0.15721914  0.60426692     0.35700
C1756       C  0.56109985  0.11718602  0.66688639     0.36400
N1757       N  0.52396650  0.11843419  0.53537410    -0.44400
N1758       N  0.62291695  0.24624667  0.61874549    -0.44800
N1759       N  0.53945328  0.10950117  0.67919103    -0.42200
N1760       N  0.68426208  0.16390114  0.59125867    -0.43600
H1761       H  0.67701675  0.13280399  0.64324923     0.12500
H1762       H  0.54837495  0.14356535  0.62856807     0.09000
H1763       H  0.56684243  0.11837685  0.58448840     0.10100
H1764       H  0.58032159  0.24652154  0.56941688     0.15900
C1765       C  0.92494255  0.31148160  0.61619158    -0.02300
C1766       C  0.95727713  0.29288691  0.61541015     0.06300
C1767       C  0.97679078  0.28814802  0.63426415    -0.08300
C1768       C  0.96450597  0.30159076  0.65384310     0.03700
C1769       C  0.93175135  0.31952447  0.65479634    -0.15500
C1770       C  0.91206525  0.32413591  0.63594170    -0.08800
C1771       C  0.97181302  0.27864186  0.59507193     0.04700
C1772       C  0.99319394  0.30048644  0.58237876    -0.09900
C1773       C  0.00894367  0.28748694  0.56359109    -0.00300
C1774       C  0.50323820  0.25210587  0.55729375    -0.00500
C1775       C  0.48189490  0.23020774  0.57001989    -0.13500
C1776       C  0.96623822  0.24319804  0.58886701     0.00000
C1777       C  0.03181657  0.31047460  0.55137468     0.39300
C1778       C  0.44462864  0.21979846  0.60161633     0.35900
C1779       C  0.90507389  0.31841672  0.59688553     0.35700
C1780       C  0.98578921  0.29629213  0.67281966     0.36400
N1781       N  0.05031177  0.32874759  0.54159179    -0.44400
N1782       N  0.42730028  0.20103238  0.61183131    -0.44800
N1783       N  0.50288095  0.29222821  0.68801786    -0.42200
N1784       N  0.88938444  0.32425498  0.58135136    -0.43600
H1785       H  0.88703554  0.33810903  0.63660259     0.12500
H1786       H  0.50180004  0.27410544  0.63361878     0.09000
H1787       H  0.99793186  0.32758408  0.58734029     0.10100
H1788       H  0.47745659  0.20299344  0.56517689     0.15900
C1789       C  0.55557084  0.27450160  0.94203002    -0.02300
C1790       C  0.59261759  0.27403357  0.93902512     0.06300
C1791       C  0.61408229  0.25947305  0.95505718    -0.08300
C1792       C  0.59932291  0.24557026  0.97388043     0.03700
C1793       C  0.56213282  0.24565765  0.97687575    -0.15500
C1794       C  0.54070762  0.26036728  0.96078371    -0.08800
C1795       C  0.60947748  0.28930855  0.91950082     0.04700
C1796       C  0.60528885  0.32547319  0.91520533    -0.09900
C1797       C  0.61903265  0.34055820  0.89641653    -0.00300
C1798       C  0.63756677  0.31930345  0.88145176    -0.00500
C1799       C  0.64327000  0.28341931  0.88638273    -0.13500
C1800       C  0.62938134  0.26835322  0.90511064     0.00000
C1801       C  0.61403273  0.37794955  0.89306578     0.39300
C1802       C  0.63451550  0.23098204  0.90867369     0.35900
C1803       C  0.53229466  0.28945691  0.92609993     0.35700
C1804       C  0.62314756  0.23174959  0.98989887     0.36400
N1805       N  0.61007840  0.40793244  0.89035844    -0.44400
N1806       N  0.63868651  0.20105443  0.91151041    -0.44800
N1807       N  0.64248418  0.22125550  0.00278318    -0.42200
N1808       N  0.51378727  0.30174487  0.91335815    -0.43600
H1809       H  0.51226240  0.26141489  0.96304195     0.12500
H1810       H  0.64259180  0.25945480  0.95297407     0.09000
H1811       H  0.59083958  0.34191803  0.92651167     0.10100
H1812       H  0.65731562  0.26652820  0.87513333     0.15900
C1813       C  0.51102069  0.15542189  0.94470871    -0.02300
C1814       C  0.97481687  0.15938149  0.93973452     0.06300
C1815       C  0.95295984  0.17878975  0.95361896    -0.08300
C1816       C  0.96664660  0.19469787  0.97208695     0.03700
C1817       C  0.00300140  0.19130478  0.97695349    -0.15500
C1818       C  0.52483557  0.17143245  0.96322621    -0.08800
C1819       C  0.95935367  0.14547167  0.91953810     0.04700
C1820       C  0.95527353  0.10887156  0.91663882    -0.09900
C1821       C  0.94015716  0.09529897  0.89775023    -0.00300
C1822       C  0.92937885  0.11856745  0.88134866    -0.00500
C1823       C  0.93258689  0.15518536  0.88462804    -0.13500
C1824       C  0.94732203  0.16871907  0.90349243     0.00000
C1825       C  0.93440625  0.05769186  0.89593345     0.39300
C1826       C  0.95058167  0.20659259  0.90583978     0.35900
C1827       C  0.53456341  0.13566610  0.93089618     0.35700
C1828       C  0.94289194  0.21482641  0.98560227     0.36400
N1829       N  0.92928409  0.02762254  0.89447682    -0.44400
N1830       N  0.95306085  0.23691271  0.90783094    -0.44800
N1831       N  0.92374106  0.23073888  0.99646773    -0.42200
N1832       N  0.55355966  0.11978301  0.91991551    -0.43600
H1833       H  0.55264993  0.16827724  0.96707216     0.12500
H1834       H  0.92510833  0.18185373  0.94982439     0.09000
H1835       H  0.96353653  0.09098214  0.92924511     0.10100
H1836       H  0.92459061  0.17337697  0.87211077     0.15900
C1837       C  0.85564460  0.99889463  0.58456799    -0.02300
C1838       C  0.83271979  0.01558660  0.59935074     0.06300
C1839       C  0.79779966  0.02289963  0.59326828    -0.08300
C1840       C  0.78521815  0.51298264  0.57299724     0.03700
C1841       C  0.80766750  0.49483726  0.55850036    -0.15500
C1842       C  0.84303591  0.98881559  0.56429159    -0.08800
C1843       C  0.84510665  0.02778276  0.62072667     0.04700
C1844       C  0.84798265  0.06421162  0.62444865    -0.09900
C1845       C  0.85952191  0.07726237  0.64428896    -0.00300
C1846       C  0.86820465  0.05355934  0.66097040    -0.00500
C1847       C  0.86539636  0.01701428  0.65719950    -0.13500
C1848       C  0.85370667  0.00399904  0.63732046     0.00000
C1849       C  0.86386037  0.11499626  0.64667424     0.39300
C1850       C  0.84996536  0.46627214  0.63448395     0.35900
C1851       C  0.89227213  0.99236412  0.58975540     0.35700
C1852       C  0.74954433  0.52274070  0.56728302     0.36400
N1853       N  0.86748872  0.14522788  0.64851185    -0.44400
N1854       N  0.84696960  0.43603802  0.63225332    -0.44800
N1855       N  0.72091405  0.53081451  0.56292184    -0.42200
N1856       N  0.92162892  0.98715965  0.59394908    -0.43600
H1857       H  0.86058249  0.97540637  0.55312526     0.12500
H1858       H  0.78038464  0.03659404  0.60439477     0.09000
H1859       H  0.84160651  0.08251851  0.61165159     0.10100
H1860       H  0.87181755  0.99860512  0.66992267     0.15900
C1861       C  0.70602583  0.42741273  0.63517770    -0.02300
C1862       C  0.71570569  0.40307368  0.61898048     0.06300
C1863       C  0.71430412  0.36676629  0.62333560    -0.08300
C1864       C  0.70321443  0.35442652  0.64342770     0.03700
C1865       C  0.69312151  0.37876126  0.65961222    -0.15500
C1866       C  0.69437398  0.41511083  0.65516163    -0.08800
C1867       C  0.72823830  0.41478001  0.59755088     0.04700
C1868       C  0.76315452  0.40714180  0.59141836    -0.09900
C1869       C  0.77629338  0.41810606  0.57150053    -0.00300
C1870       C  0.75443774  0.43753276  0.55747516    -0.00500
C1871       C  0.71896925  0.44348705  0.56311224    -0.13500
C1872       C  0.70579260  0.43247740  0.58302760     0.00000
C1873       C  0.81194768  0.40839084  0.56558187     0.39300
C1874       C  0.66916822  0.43942903  0.58814502     0.35900
C1875       C  0.70919476  0.46507132  0.63198404     0.35700
C1876       C  0.70132594  0.31669454  0.64667531     0.36400
N1877       N  0.84049618  0.40048137  0.56083212    -0.44400
N1878       N  0.63983373  0.44510586  0.59225545    -0.44800
N1879       N  0.69984020  0.28644126  0.64920839    -0.42200
N1880       N  0.71182649  0.49525722  0.62950612    -0.43600
H1881       H  0.68711433  0.43402342  0.66754014     0.12500
H1882       H  0.72175473  0.34799680  0.61091201     0.09000
H1883       H  0.78023773  0.39273894  0.60230446     0.10100
H1884       H  0.70185727  0.45773307  0.55217635     0.15900
C1885       C  0.70472981  0.07738114  0.11923701    -0.02300
C1886       C  0.70706669  0.04039580  0.11623718     0.06300
C1887       C  0.69467454  0.01798826  0.13245327    -0.08300
C1888       C  0.68000753  0.03164965  0.15137994     0.03700
C1889       C  0.67710073  0.06869732  0.15433967    -0.15500
C1890       C  0.68985071  0.09119220  0.13818159    -0.08800
C1891       C  0.72339371  0.02436830  0.09669995     0.04700
C1892       C  0.75905668  0.03135939  0.09204582    -0.09900
C1893       C  0.77536072  0.01697442  0.07376329    -0.00300
C1894       C  0.75594104  0.99472085  0.05983867    -0.00500
C1895       C  0.72043095  0.48728609  0.06468404    -0.13500
C1896       C  0.70414551  0.50167574  0.08296160     0.00000
C1897       C  0.81147837  0.02685208  0.06930282     0.39300
C1898       C  0.66745868  0.49335046  0.08701761     0.35900
C1899       C  0.71729402  0.10163984  0.10308119     0.35700
C1900       C  0.67054208  0.00693262  0.16807542     0.36400
N1901       N  0.84039351  0.03541811  0.06610048    -0.44400
N1902       N  0.63810638  0.48652397  0.09032874    -0.44800
N1903       N  0.66313214  0.98725861  0.18154726    -0.42200
N1904       N  0.72754672  0.12104519  0.09016195    -0.43600
H1905       H  0.68828987  0.11959380  0.14039503     0.12500
H1906       H  0.69730533  0.98960349  0.13052078     0.09000
H1907       H  0.77414272  0.04839296  0.10268227     0.10100
H1908       H  0.70531618  0.47032818  0.05401593     0.15900
C1909       C  0.57499050  0.14659789  0.45573577    -0.02300
C1910       C  0.58952327  0.16880074  0.43991773     0.06300
C1911       C  0.59261557  0.20513950  0.44394095    -0.08300
C1912       C  0.58015595  0.21975536  0.46316507     0.03700
C1913       C  0.56303151  0.19795564  0.47830845    -0.15500
C1914       C  0.56163086  0.16130927  0.47470776    -0.08800
C1915       C  0.59965283  0.15507220  0.41854656     0.04700
C1916       C  0.57287279  0.14296472  0.40483367    -0.09900
C1917       C  0.58063988  0.13217568  0.38385966    -0.00300
C1918       C  0.61589955  0.13384518  0.37626682    -0.00500
C1919       C  0.64274719  0.14543253  0.39022699    -0.13500
C1920       C  0.63492974  0.15572624  0.41129167     0.00000
C1921       C  0.55166599  0.12098361  0.37033932     0.39300
C1922       C  0.66352527  0.16600338  0.42534276     0.35900
C1923       C  0.57431652  0.10869621  0.45297140     0.35700
C1924       C  0.58657463  0.25675250  0.46731076     0.36400
N1925       N  0.52841581  0.11193878  0.35956051    -0.44400
N1926       N  0.68647014  0.17397673  0.43665310    -0.44800
N1927       N  0.59216333  0.28635961  0.47057161    -0.42200
N1928       N  0.57421639  0.07831146  0.45077397    -0.43600
H1929       H  0.54965226  0.14424565  0.48665163     0.12500
H1930       H  0.60458303  0.22212047  0.43194417     0.09000
H1931       H  0.54566734  0.14265192  0.41044128     0.10100
H1932       H  0.66999501  0.14608195  0.38475532     0.15900
C1933       C  0.82454495  0.05614767  0.40404699    -0.02300
C1934       C  0.84823855  0.04342850  0.41969137     0.06300
C1935       C  0.88477137  0.04557779  0.41586507    -0.08300
C1936       C  0.89792322  0.05991499  0.39669362     0.03700
C1937       C  0.87426135  0.07250277  0.38092312    -0.15500
C1938       C  0.83765531  0.07079837  0.38498836    -0.08800
C1939       C  0.83546423  0.02760067  0.44009794     0.04700
C1940       C  0.83968627  0.49118151  0.44344259    -0.09900
C1941       C  0.82773066  0.47524619  0.46243460    -0.00300
C1942       C  0.81075838  0.49590102  0.47838730    -0.00500
C1943       C  0.80785724  0.03256092  0.47529771    -0.13500
C1944       C  0.81981541  0.04842884  0.45634811     0.00000
C1945       C  0.83453058  0.43806159  0.46544988     0.39300
C1946       C  0.81609680  0.08618834  0.45401875     0.35900
C1947       C  0.78670072  0.05310704  0.40681961     0.35700
C1948       C  0.93576799  0.06210732  0.39381705     0.36400
N1949       N  0.84026980  0.40825628  0.46768733    -0.44400
N1950       N  0.81309267  0.11645721  0.45215559    -0.44800
N1951       N  0.96610383  0.06394369  0.39150870    -0.42200
N1952       N  0.75638217  0.05057778  0.40898427    -0.43600
H1953       H  0.81910377  0.07970292  0.37287986     0.12500
H1954       H  0.90306191  0.03601973  0.42793472     0.09000
H1955       H  0.85240763  0.47519570  0.43116223     0.10100
H1956       H  0.79545786  0.04876285  0.48759483     0.15900
C1957       C  0.58285120  0.23719123  0.09175100    -0.02300
C1958       C  0.57909420  0.27317320  0.09735615     0.06300
C1959       C  0.56473997  0.29677025  0.08237884    -0.08300
C1960       C  0.55331420  0.28486693  0.06224105     0.03700
C1961       C  0.55635101  0.24872686  0.05683533    -0.15500
C1962       C  0.57174068  0.22536371  0.07157438    -0.08800
C1963       C  0.59063941  0.28668117  0.11861918     0.04700
C1964       C  0.62645021  0.28402423  0.12415936    -0.09900
C1965       C  0.63855432  0.29560776  0.14418643    -0.00300
C1966       C  0.61441050  0.30986359  0.15931736    -0.00500
C1967       C  0.57865351  0.31342244  0.15347889    -0.13500
C1968       C  0.56667198  0.30212464  0.13330252     0.00000
C1969       C  0.67614292  0.29413372  0.14823963     0.39300
C1970       C  0.52965142  0.30623476  0.12813582     0.35900
C1971       C  0.59724076  0.21177015  0.10661303     0.35700
C1972       C  0.03776399  0.31005092  0.04767051     0.36400
N1973       N  0.70628979  0.29316364  0.15142465    -0.44400
N1974       N  0.50006690  0.30981703  0.12389289    -0.44800
N1975       N  0.02546534  0.33034529  0.03599506    -0.42200
N1976       N  0.60893715  0.19148298  0.11851675    -0.43600
H1977       H  0.57449383  0.19763593  0.06741097     0.12500
H1978       H  0.56230913  0.32455370  0.08650528     0.09000
H1979       H  0.64510931  0.27311430  0.11264523     0.10100
H1980       H  0.55988624  0.32465998  0.16479862     0.15900
C1981       C  0.96846601  0.20589728  0.08989091    -0.02300
C1982       C  0.97286343  0.17024008  0.09614822     0.06300
C1983       C  0.98970798  0.14676519  0.08190484    -0.08300
C1984       C  0.00341822  0.15841287  0.06226933     0.03700
C1985       C  0.99989933  0.19421668  0.05635615    -0.15500
C1986       C  0.98187678  0.21744309  0.07014493    -0.08800
C1987       C  0.96061652  0.15708953  0.11749778     0.04700
C1988       C  0.92500463  0.16118319  0.12341276    -0.09900
C1989       C  0.91262555  0.14989459  0.14348332    -0.00300
C1990       C  0.93611631  0.13348788  0.15814044    -0.00500
C1991       C  0.97155105  0.12862889  0.15194766    -0.13500
C1992       C  0.98394349  0.14034063  0.13198447     0.00000
C1993       C  0.87548693  0.15472141  0.14818177     0.39300
C1994       C  0.52095735  0.13551441  0.12700980     0.35900
C1995       C  0.95115989  0.23140687  0.10361277     0.35700
C1996       C  0.02222547  0.13353206  0.04882440     0.36400
N1997       N  0.84571718  0.15873852  0.15185598    -0.44400
N1998       N  0.55057550  0.13133169  0.12300305    -0.44800
N1999       N  0.03732038  0.11369427  0.03798244    -0.42200
N2000       N  0.93706078  0.25193780  0.11446216    -0.43600
H2001       H  0.47878605  0.24509397  0.06555086     0.12500
H2002       H  0.99264726  0.11899547  0.08633978     0.09000
H2003       H  0.90661654  0.17322934  0.11217709     0.10100
H2004       H  0.99000219  0.11622227  0.16296106     0.15900
C2005       C  0.73106945  0.38645524  0.40284153    -0.02300
C2006       C  0.70849512  0.39890882  0.41923654     0.06300
C2007       C  0.67176038  0.39883062  0.41588128    -0.08300
C2008       C  0.65734387  0.38653028  0.39647290     0.03700
C2009       C  0.67993880  0.37429170  0.37995730    -0.15500
C2010       C  0.71672438  0.37421451  0.38349036    -0.08800
C2011       C  0.72288093  0.41275111  0.43979712     0.04700
C2012       C  0.72009072  0.44899961  0.44427607    -0.09900
C2013       C  0.73421832  0.46331783  0.46320493    -0.00300
C2014       C  0.75229537  0.44125405  0.47780457    -0.00500
C2015       C  0.75405572  0.40479136  0.47357091    -0.13500
C2016       C  0.73949519  0.39043947  0.45481379     0.00000
C2017       C  0.72821040  0.50027010  0.46770528     0.39300
C2018       C  0.74125632  0.35268304  0.45153459     0.35900
C2019       C  0.76908637  0.38693287  0.40531313     0.35700
C2020       C  0.61935216  0.38543155  0.39423199     0.36400
N2021       N  0.72308157  0.02989446  0.47120429    -0.44400
N2022       N  0.74261642  0.32240282  0.44897907    -0.44800
N2023       N  0.58889696  0.38428884  0.39244112    -0.42200
N2024       N  0.79951426  0.38729498  0.40738805    -0.43600
H2025       H  0.73449273  0.36536912  0.37087608     0.12500
H2026       H  0.65432450  0.40817232  0.42853983     0.09000
H2027       H  0.70670429  0.46611982  0.43295721     0.10100
H2028       H  0.76707608  0.38749873  0.48494952     0.15900
C2029       C  0.80607264  0.40409645  0.09153492    -0.02300
C2030       C  0.84238467  0.40795045  0.09632601     0.06300
C2031       C  0.86394572  0.42744772  0.08235276    -0.08300
C2032       C  0.84995959  0.44318557  0.06392903     0.03700
C2033       C  0.81358998  0.43967329  0.05917162    -0.15500
C2034       C  0.79197982  0.41997669  0.07308350    -0.08800
C2035       C  0.85833363  0.39312173  0.11619275     0.04700
C2036       C  0.85875072  0.35636655  0.11943825    -0.09900
C2037       C  0.87303157  0.34186836  0.13827221    -0.00300
C2038       C  0.88776440  0.36434155  0.15407003    -0.00500
C2039       C  0.88831410  0.40098222  0.15037248    -0.13500
C2040       C  0.87345316  0.41544952  0.13186253     0.00000
C2041       C  0.87243582  0.30398583  0.14093846     0.39300
C2042       C  0.87227763  0.45347550  0.12992387     0.35900
C2043       C  0.78271469  0.38454947  0.10550912     0.35700
C2044       C  0.87337061  0.46363562  0.05048758     0.36400
N2045       N  0.87189931  0.27363324  0.14315594    -0.44400
N2046       N  0.87121836  0.48394035  0.12846522    -0.44800
N2047       N  0.89220782  0.48024382  0.03988420    -0.42200
N2048       N  0.76411150  0.36876105  0.11671895    -0.43600
H2049       H  0.76414491  0.41675419  0.06940842     0.12500
H2050       H  0.89183480  0.43052664  0.08594843     0.09000
H2051       H  0.84761762  0.33902353  0.10730368     0.10100
H2052       H  0.89880150  0.41874223  0.16250536     0.15900
C2053       C  0.49115182  0.29782110  0.45281517    -0.02300
C2054       C  0.97556212  0.27417909  0.43803288     0.06300
C2055       C  0.97169901  0.23851802  0.44374392    -0.08300
C2056       C  0.98437577  0.22603292  0.46347526     0.03700
C2057       C  0.50228959  0.24921256  0.47758814    -0.15500
C2058       C  0.50441677  0.28522109  0.47235466    -0.08800
C2059       C  0.96404802  0.28590126  0.41633394     0.04700
C2060       C  0.98971891  0.29699465  0.40150520    -0.09900
C2061       C  0.98024198  0.30738961  0.38068514    -0.00300
C2062       C  0.94432634  0.30627326  0.37423724    -0.00500
C2063       C  0.91871904  0.29508223  0.38916388    -0.13500
C2064       C  0.92821203  0.28541059  0.41010172     0.00000
C2065       C  0.00809739  0.31817353  0.36620315     0.39300
C2066       C  0.90059666  0.27668682  0.42522431     0.35900
C2067       C  0.49284537  0.33524555  0.44853418     0.35700
C2068       C  0.97734624  0.18980241  0.46927464     0.36400
N2069       N  0.53048534  0.32692866  0.35467622    -0.44400
N2070       N  0.87841931  0.27007332  0.43740255    -0.44800
N2071       N  0.97130084  0.16085363  0.47396679    -0.42200
N2072       N  0.49385211  0.36530310  0.44522069    -0.43600
H2073       H  0.51698276  0.30344494  0.48345661     0.12500
H2074       H  0.95885077  0.22038404  0.43270506     0.09000
H2075       H  0.51734999  0.29732202  0.40621230     0.10100
H2076       H  0.89101777  0.29483076  0.38466746     0.15900
C2077       C  0.93253227  0.81767219  0.35253416     0.79900
N2078       N  0.90425899  0.80181016  0.34296557    -0.78400
C2079       C  0.89229495  0.81337033  0.32363013     0.82400
N2080       N  0.90836524  0.84117559  0.31397970    -0.78300
C2081       C  0.93648238  0.85720306  0.32337874     0.82500
N2082       N  0.94844500  0.84545260  0.34263096    -0.80000
C2083       C  0.89892922  0.85167425  0.17554379     0.79900
N2084       N  0.92363744  0.87037473  0.18661416    -0.78400
C2085       C  0.92823797  0.86526547  0.20794663     0.82400
N2086       N  0.90741183  0.84180541  0.21845711    -0.78300
C2087       C  0.88368550  0.82184576  0.20745373     0.82500
N2088       N  0.87911022  0.82719732  0.18606929    -0.80000
C2089       C  0.66667475  0.86292334  0.35858018     0.79900
N2090       N  0.68435505  0.83725701  0.34765070    -0.78400
C2091       C  0.67672891  0.83035902  0.32680058     0.82400
N2092       N  0.65194668  0.84991342  0.31657247    -0.78300
C2093       C  0.63312056  0.87470959  0.32746590     0.82500
N2094       N  0.64079930  0.88153632  0.34842148    -0.80000
C2095       C  0.92476219  0.62150021  0.17985791     0.79900
N2096       N  0.89786829  0.63809449  0.19025873    -0.78400
C2097       C  0.88722064  0.62720285  0.20996116     0.82400
N2098       N  0.90357486  0.59954734  0.21948130    -0.78300
C2099       C  0.93091331  0.58311681  0.20947571     0.82500
N2100       N  0.94153672  0.59414397  0.18970682    -0.80000
N2101       N  0.48548702  0.93161672  0.22657101    -0.06400
N2102       N  0.47870110  0.90689914  0.21211094    -0.58500
N2103       N  0.95984899  0.51228344  0.24155320    -0.06100
N2104       N  0.93668626  0.53778430  0.23815424    -0.60700
N2105       N  0.48433650  0.51247280  0.22648113    -0.05700
N2106       N  0.47829133  0.53785854  0.21247999    -0.58500
N2107       N  0.96178289  0.93075826  0.24205281    -0.05400
N2108       N  0.93880705  0.90511404  0.23868571    -0.61000
C2109       C  0.94986783  0.89027786  0.22010262     0.95800
C2110       C  0.94859544  0.55343596  0.22000501     0.95500
N2111       N  0.48222328  0.51244017  0.30796581    -0.06600
N2112       N  0.47275236  0.53511019  0.32316249    -0.59100
N2113       N  0.96154225  0.93086404  0.29239905    -0.04700
N2114       N  0.94000811  0.90381603  0.29533237    -0.60400
N2115       N  0.48592237  0.93157833  0.30746672    -0.06600
N2116       N  0.48142914  0.90518142  0.32101733    -0.59400
N2117       N  0.95875090  0.51230148  0.29237430    -0.04400
N2118       N  0.93330870  0.53527284  0.29640122    -0.60400
Mn2119     Mn  0.95945774  0.97163042  0.26706824     1.18400
C2120       C  0.94249684  0.54949098  0.31552101     0.97900
C2121       C  0.95279058  0.88806874  0.31318811     0.98500
N2122       N  0.56810737  0.51396526  0.22596853    -0.06600
N2123       N  0.57648897  0.53699114  0.21084003    -0.62900
N2124       N  0.59300050  0.93356551  0.24157411    -0.05400
N2125       N  0.61592425  0.90769123  0.23845734    -0.63600
N2126       N  0.56871004  0.93319553  0.22647050    -0.06100
N2127       N  0.57457956  0.90726177  0.21270515    -0.63200
N2128       N  0.59151965  0.51502966  0.24156245    -0.05000
N2129       N  0.61576611  0.53922657  0.23764940    -0.63900
Mn2130     Mn  0.52659190  0.97287465  0.22573515     1.10700
C2131       C  0.60590796  0.55297865  0.21860438     0.99100
C2132       C  0.60399782  0.89156446  0.22043091     0.99200
N2133       N  0.56970295  0.93482459  0.30792153    -0.06200
N2134       N  0.57926827  0.91253621  0.32318497    -0.61500
N2135       N  0.59060000  0.51559315  0.29197917    -0.05500
N2136       N  0.61309650  0.54170835  0.29518043    -0.58300
N2137       N  0.56631436  0.51522839  0.30716887    -0.06800
N2138       N  0.57193262  0.54092110  0.32113222    -0.61100
N2139       N  0.59310462  0.93464224  0.29223918    -0.05800
N2140       N  0.61856029  0.91181664  0.29625415    -0.58300
Mn2141     Mn  0.52600305  0.97357153  0.30828293     1.20200
Mn2142     Mn  0.59290801  0.97468846  0.26683327     1.10100
Cl2143     Cl  0.52621332  0.97331048  0.26700745    -0.86300
C2144       C  0.60951787  0.89809228  0.31546684     0.96100
C2145       C  0.60104543  0.55721692  0.31333907     0.95900
C2146       C  0.62583635  0.82157891  0.18100044     0.79900
N2147       N  0.65286790  0.80494828  0.19115823    -0.78400
C2148       C  0.66432249  0.81642466  0.21060228     0.82400
N2149       N  0.64856004  0.84470276  0.22005917    -0.78300
C2150       C  0.62108236  0.86109672  0.21023464     0.82500
N2151       N  0.60976066  0.84948134  0.19074889    -0.80000
C2152       C  0.88640132  0.58452230  0.35944820     0.79900
N2153       N  0.91205759  0.56618180  0.34881001    -0.78400
C2154       C  0.91889536  0.57284319  0.32777873     0.82400
N2155       N  0.89948650  0.59743769  0.31725810    -0.78300
C2156       C  0.87485900  0.61686512  0.32790234     0.82500
N2157       N  0.86794578  0.60996621  0.34887726    -0.80000
C2158       C  0.62563176  0.62377942  0.35407652     0.79900
N2159       N  0.65241598  0.64085755  0.34389177    -0.78400
C2160       C  0.66229493  0.63101285  0.32379461     0.82400
N2161       N  0.64559988  0.60376648  0.31390063    -0.78300
C2162       C  0.61868427  0.58678727  0.32391516     0.82500
N2163       N  0.60884697  0.59671838  0.34398919    -0.80000
C2164       C  0.66371051  0.58389028  0.17483550     0.79900
N2165       N  0.63682643  0.56753945  0.18542368    -0.78400
C2166       C  0.62930382  0.57595685  0.20611191     0.82400
N2167       N  0.64916222  0.60058186  0.21638108    -0.78300
C2168       C  0.67476154  0.61853331  0.20568978     0.83300
N2169       N  0.68237108  0.60982138  0.18497246    -0.80000
N2170       N  0.81796943  0.76357256  0.30751505    -0.06400
N2171       N  0.84416596  0.76835195  0.32125243    -0.58500
N2172       N  0.73739389  0.79040280  0.29189079    -0.06100
N2173       N  0.71414154  0.81568434  0.29558411    -0.60700
N2174       N  0.73699711  0.76706602  0.30749175    -0.05700
N2175       N  0.71385958  0.77646209  0.32239919    -0.58500
N2176       N  0.81889222  0.78769031  0.29232930    -0.05400
N2177       N  0.84586831  0.80930571  0.29538413    -0.61000
C2178       C  0.86136707  0.79689426  0.31343156     0.95800
C2179       C  0.69945719  0.80647655  0.31451633     0.95500
N2180       N  0.73664197  0.76432245  0.22657303    -0.06600
N2181       N  0.71030905  0.76969653  0.21308376    -0.59100
N2182       N  0.81876299  0.78755108  0.24175586    -0.04700
N2183       N  0.84391112  0.81094095  0.23815821    -0.60400
N2184       N  0.81775889  0.76394221  0.22621870    -0.06600
N2185       N  0.84189388  0.77120219  0.21147326    -0.59400
N2186       N  0.73710136  0.78893044  0.24157535    -0.04400
N2187       N  0.71089271  0.81148823  0.23866816    -0.60400
Mn2188     Mn  0.77810010  0.78963695  0.26686197     1.18400
C2189       C  0.69447489  0.79910233  0.22088218     0.97900
C2190       C  0.85826878  0.80028449  0.21935479     0.98500
N2191       N  0.73393893  0.68331769  0.30705981    -0.06600
N2192       N  0.70804592  0.67791250  0.32091154    -0.62900
N2193       N  0.81480957  0.65639202  0.29256874    -0.05400
N2194       N  0.83779730  0.63110070  0.29659968    -0.63600
N2195       N  0.81456985  0.67987461  0.30820223    -0.06100
N2196       N  0.83699058  0.67054449  0.32346846    -0.63200
N2197       N  0.73365393  0.65892089  0.29192474    -0.05000
N2198       N  0.70740851  0.63654621  0.29506173    -0.63900
Mn2199     Mn  0.77582699  0.72350319  0.30824488     1.10700
C2200       C  0.69171755  0.64879114  0.31312422     0.99100
C2201       C  0.85160550  0.64036250  0.31576908     0.99200
N2202       N  0.81673427  0.68074956  0.22686982    -0.06200
N2203       N  0.84236785  0.67455257  0.21299379    -0.61500
N2204       N  0.73517037  0.65720814  0.24141961    -0.05500
N2205       N  0.71173016  0.63235368  0.23720481    -0.58300
N2206       N  0.73626764  0.68044035  0.22576640    -0.06800
N2207       N  0.71404608  0.67132411  0.21029228    -0.61100
N2208       N  0.81637630  0.65656720  0.24200920    -0.05800
N2209       N  0.84197458  0.63339111  0.23879756    -0.58300
Mn2210     Mn  0.77678474  0.72245994  0.22571438     1.20200
Mn2211     Mn  0.77499816  0.65643332  0.26701177     1.10100
Cl2212     Cl  0.77640677  0.72300019  0.26696858    -0.86300
C2213       C  0.85788295  0.64508712  0.22068696     0.96100
C2214       C  0.69857355  0.64159977  0.21789047     0.95900
C2215       C  0.76814019  0.95490691  0.49809180     0.02000
C2216       C  0.79569671  0.98042650  0.49842547     0.02000
C2217       C  0.80817780  0.99294238  0.51835199    -0.18600
C2218       C  0.79438407  0.98019197  0.53779451     0.02000
C2219       C  0.76841498  0.95330894  0.53735698     0.02000
C2220       C  0.75527912  0.94140652  0.51759350    -0.18600
H2221       H  0.73471692  0.92140800  0.51740091     0.04000
H2222       H  0.82863290  0.51302946  0.51874095     0.04000
C2223       C  0.54230244  0.73437230  0.03634328     0.02000
C2224       C  0.51580990  0.70801819  0.03617685     0.02000
C2225       C  0.00388483  0.69467782  0.01652625    -0.18600
C2226       C  0.51788990  0.70660897  0.99696802     0.02000
C2227       C  0.54538943  0.73219076  0.99703743     0.02000
C2228       C  0.55663951  0.74618304  0.01684064    -0.18600
H2229       H  0.57695833  0.76640414  0.01713038     0.04000
H2230       H  0.98328786  0.67468229  0.01645131     0.04000
C2231       C  0.54708990  0.71235612  0.49826132     0.02000
C2232       C  0.51864894  0.73676485  0.49797653     0.02000
C2233       C  0.50544492  0.74978418  0.51752700    -0.18600
C2234       C  0.51882896  0.73785656  0.53723801     0.02000
C2235       C  0.54604087  0.71226026  0.53749036     0.02000
C2236       C  0.56025762  0.70037557  0.51797326    -0.18600
H2237       H  0.58175205  0.68137085  0.51813188     0.04000
H2238       H  0.98398306  0.76881770  0.51743329     0.04000
C2239       C  0.77104174  0.98050774  0.03948845     0.02000
C2240       C  0.79825262  0.95472268  0.03917568     0.02000
C2241       C  0.81072112  0.94201478  0.01932438    -0.18600
C2242       C  0.79690792  0.95456039  0.99992887     0.02000
C2243       C  0.76993699  0.98037572  0.00013792     0.02000
C2244       C  0.75713335  0.99288084  0.01993244    -0.18600
H2245       H  0.73645199  0.51274445  0.02012733     0.04000
H2246       H  0.83116090  0.92191217  0.01895194     0.04000
C2247       C  0.87465793  0.87594468  0.85236477     0.79900
N2248       N  0.85815807  0.84870737  0.84222765    -0.78400
C2249       C  0.87023914  0.83691843  0.82292772     0.82400
N2250       N  0.89873455  0.85253786  0.81373889    -0.78300
C2251       C  0.91515728  0.87989935  0.82369474     0.82500
N2252       N  0.90336084  0.89131855  0.84313210    -0.80000
C2253       C  0.91782306  0.60601019  0.85995694     0.79900
N2254       N  0.93660337  0.58040248  0.84961952    -0.78400
C2255       C  0.93118932  0.57408928  0.82838762     0.82400
N2256       N  0.90756208  0.59402474  0.81737976    -0.78300
C2257       C  0.88774488  0.61859976  0.82776130     0.82500
N2258       N  0.89330179  0.62488837  0.84892867    -0.80000
C2259       C  0.68708716  0.56297288  0.85389451     0.79900
N2260       N  0.65966073  0.54689349  0.84368991    -0.78400
C2261       C  0.64807720  0.55889739  0.82441375     0.82400
N2262       N  0.66398330  0.58724895  0.81524752    -0.78300
C2263       C  0.69154422  0.60351313  0.82515639     0.82500
N2264       N  0.70288374  0.59148963  0.84456175    -0.80000
C2265       C  0.64827783  0.83236947  0.85985226     0.79900
N2266       N  0.62824097  0.85684303  0.84944055    -0.78400
C2267       C  0.63383611  0.86369427  0.82828295     0.82400
N2268       N  0.65883055  0.84521556  0.81734609    -0.78300
C2269       C  0.67978605  0.82178494  0.82774634     0.82500
N2270       N  0.67419570  0.81518444  0.84885562    -0.80000
C2271       C  0.63797020  0.61108851  0.67674193     0.79900
N2272       N  0.66493611  0.62840414  0.68679324    -0.78400
C2273       C  0.67450544  0.61932044  0.70708470     0.82400
N2274       N  0.65663412  0.59334304  0.71739827    -0.78300
C2275       C  0.63097404  0.57480540  0.70715965     0.82500
N2276       N  0.62134393  0.58404111  0.68696335    -0.80000
C2277       C  0.88046652  0.56621417  0.68223214     0.79900
N2278       N  0.86480439  0.59453866  0.69176342    -0.78400
C2279       C  0.87654297  0.60666725  0.71101752     0.82400
N2280       N  0.90419798  0.59051833  0.72077359    -0.78300
C2281       C  0.91972008  0.56195939  0.71149122     0.82500
N2282       N  0.90772898  0.54976482  0.69228290    -0.80000
N2283       N  0.82390983  0.75890075  0.72661494    -0.06400
N2284       N  0.83236661  0.78168617  0.71135294    -0.58500
N2285       N  0.84835019  0.67896408  0.74238530    -0.06100
N2286       N  0.87146334  0.65332792  0.73912637    -0.60700
N2287       N  0.82366060  0.67825397  0.72748159    -0.05700
N2288       N  0.82955404  0.65233668  0.71370679    -0.58500
N2289       N  0.84736674  0.76012147  0.74218268    -0.05400
N2290       N  0.87172371  0.78410383  0.73812194    -0.61000
C2291       C  0.86194499  0.79753678  0.71899503     0.95800
C2292       C  0.85933356  0.63701968  0.72122674     0.95500
N2293       N  0.82600423  0.68018251  0.80851364    -0.06600
N2294       N  0.83486189  0.65704365  0.82340797    -0.59100
N2295       N  0.84677147  0.76178451  0.79261756    -0.04700
N2296       N  0.86753069  0.78957599  0.79510416    -0.60400
N2297       N  0.82257879  0.76106933  0.80783544    -0.06600
N2298       N  0.82634146  0.78820018  0.82100604    -0.59400
N2299       N  0.84953193  0.68016932  0.79292103    -0.04400
N2300       N  0.87447201  0.65659924  0.79663633    -0.60400
Mn2301     Mn  0.84900215  0.72026838  0.76755981     1.18400
C2302       C  0.86480154  0.64221124  0.81556601     0.97900
C2303       C  0.85436901  0.80575139  0.81282715     0.98500
N2304       N  0.73908308  0.67810386  0.72719151    -0.06600
N2305       N  0.72900345  0.65637395  0.71163670    -0.62900
N2306       N  0.71604345  0.75861277  0.74300732    -0.05400
N2307       N  0.69317995  0.78447225  0.73986576    -0.63600
N2308       N  0.74025363  0.75858424  0.72777862    -0.06100
N2309       N  0.73433648  0.78416395  0.71391470    -0.63200
N2310       N  0.71600714  0.67742203  0.74305108    -0.05000
N2311       N  0.69039959  0.65478609  0.73888512    -0.63900
Mn2312     Mn  0.78174240  0.71834005  0.72664063     1.10700
C2313       C  0.69892819  0.64164099  0.71939111     0.99100
C2314       C  0.70501086  0.80009093  0.72169862     0.99200
N2315       N  0.73999416  0.75847218  0.80879842    -0.06200
N2316       N  0.73220119  0.78272106  0.82337769    -0.61500
N2317       N  0.71758415  0.67681239  0.79381582    -0.05500
N2318       N  0.69558085  0.65021290  0.79705640    -0.58300
N2319       N  0.74216960  0.67730098  0.80877771    -0.06800
N2320       N  0.73728789  0.65120829  0.82255236    -0.61100
N2321       N  0.71637521  0.75857699  0.79334043    -0.05800
N2322       N  0.69239042  0.78322411  0.79681208    -0.58300
Mn2323     Mn  0.78272508  0.71911427  0.80916871     1.20200
Mn2324     Mn  0.71559261  0.71777721  0.76836250     1.10100
Cl2325     Cl  0.78226803  0.71870067  0.76790758    -0.86300
C2326       C  0.70276369  0.79825394  0.81544840     0.96100
C2327       C  0.70817998  0.63448353  0.81499283     0.95900
C2328       C  0.91809657  0.83274898  0.67550205     0.79900
N2329       N  0.89209048  0.81454950  0.68577633    -0.78400
C2330       C  0.88490211  0.82133930  0.70678741     0.82400
N2331       N  0.90444823  0.84566295  0.71758494    -0.78300
C2332       C  0.92952190  0.86480916  0.70725264     0.82500
N2333       N  0.93672725  0.85785925  0.68630785    -0.80000
C2334       C  0.68148022  0.86722866  0.68120368     0.79900
N2335       N  0.69807381  0.84012472  0.69129028    -0.78400
C2336       C  0.68729488  0.82957300  0.71106886     0.82400
N2337       N  0.65972426  0.84608363  0.72078868    -0.78300
C2338       C  0.64331928  0.87346154  0.71095108     0.82500
N2339       N  0.65431001  0.88408870  0.69122816    -0.80000
N2340       N  0.99041058  0.92846728  0.80851928    -0.06400
N2341       N  0.96362797  0.92425242  0.82190072    -0.58500
N2342       N  0.57137382  0.90153847  0.79354842    -0.06100
N2343       N  0.59489011  0.87659615  0.79740015    -0.60700
N2344       N  0.57131241  0.92512874  0.80912330    -0.05700
N2345       N  0.59438762  0.91628733  0.82413652    -0.58500
N2346       N  0.98984359  0.90410195  0.79337035    -0.05400
N2347       N  0.96251130  0.88287313  0.79606626    -0.61000
C2348       C  0.94649405  0.89579024  0.81387689     0.95800
C2349       C  0.60917368  0.88623275  0.81640917     0.95500
N2350       N  0.57219030  0.92660884  0.72777190    -0.06600
N2351       N  0.59783848  0.92058062  0.71383701    -0.59100
N2352       N  0.99066364  0.90263372  0.74283050    -0.04700
N2353       N  0.96683463  0.87804947  0.73876595    -0.60400
N2354       N  0.99153825  0.92602681  0.72725934    -0.06600
N2355       N  0.96871695  0.91736589  0.71203588    -0.59400
N2356       N  0.57197545  0.90227776  0.74284842    -0.04400
N2357       N  0.59769666  0.87928428  0.73955236    -0.60400
Mn2358     Mn  0.53097645  0.90168265  0.76817609     1.18400
C2359       C  0.61354258  0.89112670  0.72146200     0.97900
C2360       C  0.95315085  0.88772422  0.71965876     0.98500
N2361       N  0.57414883  0.50874629  0.80838672    -0.06600
N2362       N  0.60067849  0.51347340  0.82185528    -0.62900
N2363       N  0.99290301  0.53509887  0.79365119    -0.05400
N2364       N  0.96936107  0.56003896  0.79743279    -0.63600
N2365       N  0.99317813  0.51190299  0.80932000    -0.06100
N2366       N  0.97016492  0.52106380  0.82438366    -0.63200
N2367       N  0.57445839  0.53311381  0.79334371    -0.05000
N2368       N  0.60138499  0.55488538  0.79623551    -0.63900
Mn2369     Mn  0.53228938  0.96855192  0.80951319     1.10700
C2370       C  0.61747062  0.54223434  0.81403310     0.99100
C2371       C  0.95521874  0.55084567  0.81651007     0.99200
N2372       N  0.99142819  0.50964107  0.72802934    -0.06200
N2373       N  0.96554421  0.51525176  0.71427548    -0.61500
N2374       N  0.57287143  0.53391880  0.74295340    -0.05500
N2375       N  0.59581921  0.55919479  0.73887078    -0.58300
N2376       N  0.57204833  0.51075693  0.72715640    -0.06800
N2377       N  0.59400089  0.52045778  0.71166651    -0.61100
N2378       N  0.99163080  0.53411152  0.74312004    -0.05800
N2379       N  0.96568412  0.55688838  0.73996144    -0.58300
Mn2380     Mn  0.53186254  0.96823623  0.72692760     1.20200
Mn2381     Mn  0.53295667  0.53491612  0.76829332     1.10100
Cl2382     Cl  0.53206056  0.96832504  0.76821561    -0.86300
C2383       C  0.94969347  0.54468150  0.72196471     0.96100
C2384       C  0.60903625  0.55036022  0.71948306     0.95900
C2385       C  0.71769448  0.56675152  0.91186583    -0.02300
C2386       C  0.71917270  0.53071491  0.91760803     0.06300
C2387       C  0.70884291  0.50515574  0.90247718    -0.08300
C2388       C  0.69811902  0.51486188  0.88173178     0.03700
C2389       C  0.69817372  0.55093653  0.87563926    -0.15500
C2390       C  0.70792799  0.57646505  0.89098152    -0.08800
C2391       C  0.73195573  0.51906893  0.93912927     0.04700
C2392       C  0.70923975  0.49981794  0.95263975    -0.09900
C2393       C  0.72079535  0.48763862  0.97273880    -0.00300
C2394       C  0.75556563  0.99494654  0.97969856    -0.00500
C2395       C  0.77795232  0.51475714  0.96636499    -0.13500
C2396       C  0.76683770  0.52603594  0.94607124     0.00000
C2397       C  0.69693760  0.46683979  0.98567239     0.39300
C2398       C  0.79230052  0.54313356  0.93225196     0.35900
C2399       C  0.72476880  0.59431291  0.92737290     0.35700
C2400       C  0.68823827  0.48703817  0.86696830     0.36400
N2401       N  0.67784573  0.45015498  0.99606581    -0.44400
N2402       N  0.81277924  0.55667813  0.92115815    -0.44800
N2403       N  0.68026205  0.96451358  0.85531278    -0.42200
N2404       N  0.73024599  0.61641056  0.93982925    -0.43600
H2405       H  0.70704453  0.60425423  0.88682236     0.12500
H2406       H  0.70962649  0.97742761  0.90681696     0.09000
H2407       H  0.68251728  0.49402434  0.94736860     0.10100
H2408       H  0.80456742  0.02078701  0.97163863     0.15900
C2409       C  0.87790260  0.89422291  0.91191486    -0.02300
C2410       C  0.84302394  0.90571581  0.91628122     0.06300
C2411       C  0.81866125  0.90777629  0.89928194    -0.08300
C2412       C  0.82832137  0.89795170  0.87835942     0.03700
C2413       C  0.86324063  0.88688664  0.87405165    -0.15500
C2414       C  0.88779075  0.88540465  0.89088609    -0.08800
C2415       C  0.83175369  0.91652620  0.93830010     0.04700
C2416       C  0.85120847  0.94264449  0.94921311    -0.09900
C2417       C  0.84142256  0.95376904  0.96982507    -0.00300
C2418       C  0.81059017  0.94008624  0.97941591    -0.00500
C2419       C  0.79117828  0.91383811  0.96871757    -0.13500
C2420       C  0.80179690  0.90157900  0.94844200     0.00000
C2421       C  0.86283036  0.97995677  0.98060984     0.39300
C2422       C  0.78203862  0.87316629  0.93859395     0.35900
C2423       C  0.90371369  0.89023801  0.92882117     0.35700
C2424       C  0.80227811  0.90038686  0.86148529     0.36400
N2425       N  0.87994618  0.00100231  0.98923403    -0.44400
N2426       N  0.76633816  0.85034426  0.93066009    -0.44800
N2427       N  0.78138802  0.90233022  0.84796987    -0.42200
N2428       N  0.92428657  0.88719025  0.94243832    -0.43600
H2429       H  0.91457038  0.87647832  0.88766814     0.12500
H2430       H  0.79202856  0.91723654  0.90235681     0.09000
H2431       H  0.87405030  0.95454591  0.94154860     0.10100
H2432       H  0.76762742  0.90304307  0.97621800     0.15900
C2433       C  0.63739149  0.64849913  0.62037689    -0.02300
C2434       C  0.60089929  0.65213516  0.61625321     0.06300
C2435       C  0.57646640  0.64085024  0.63172670    -0.08300
C2436       C  0.58782470  0.62685401  0.65135474     0.03700
C2437       C  0.62451533  0.62408100  0.65580149    -0.15500
C2438       C  0.64888350  0.63513303  0.64014967    -0.08800
C2439       C  0.58750439  0.66797869  0.59602666     0.04700
C2440       C  0.56984595  0.64634771  0.58118706    -0.09900
C2441       C  0.55622353  0.66038901  0.56212962    -0.00300
C2442       C  0.55975919  0.69684537  0.55779190    -0.00500
C2443       C  0.57728906  0.71854543  0.57270574    -0.13500
C2444       C  0.59117212  0.70440525  0.59170825     0.00000
C2445       C  0.53822998  0.63700922  0.54736358     0.39300
C2446       C  0.60872275  0.72772934  0.60669000     0.35900
C2447       C  0.66342828  0.65722611  0.60426894     0.35700
C2448       C  0.56110255  0.61716403  0.66688472     0.36400
N2449       N  0.52391137  0.61844498  0.53539134    -0.44400
N2450       N  0.62295205  0.74624082  0.61873249    -0.44800
N2451       N  0.53945703  0.60947012  0.67918794    -0.42200
N2452       N  0.68425846  0.66391066  0.59126076    -0.43600
H2453       H  0.67701761  0.63281045  0.64325032     0.12500
H2454       H  0.54837366  0.64355168  0.62856918     0.09000
H2455       H  0.56680817  0.61838213  0.58450017     0.10100
H2456       H  0.58033979  0.74651521  0.56940977     0.15900
C2457       C  0.92495978  0.81149791  0.61619190    -0.02300
C2458       C  0.95728731  0.79289060  0.61541236     0.06300
C2459       C  0.97679245  0.78813808  0.63426840    -0.08300
C2460       C  0.96450570  0.80157914  0.65384738     0.03700
C2461       C  0.93175672  0.81952323  0.65479857    -0.15500
C2462       C  0.91207968  0.82414942  0.63594195    -0.08800
C2463       C  0.97182264  0.77864309  0.59507448     0.04700
C2464       C  0.99318500  0.80049256  0.58237294    -0.09900
C2465       C  0.00893318  0.78749134  0.56358513    -0.00300
C2466       C  0.50323583  0.75210540  0.55729463    -0.00500
C2467       C  0.48191309  0.73020289  0.57003075    -0.13500
C2468       C  0.96626488  0.74319275  0.58887768     0.00000
C2469       C  0.03179107  0.81048358  0.55136159     0.39300
C2470       C  0.44467481  0.71979064  0.60163896     0.35900
C2471       C  0.90509983  0.81844690  0.59688444     0.35700
C2472       C  0.98578186  0.79627018  0.67282580     0.36400
N2473       N  0.05027464  0.82875988  0.54157290    -0.44400
N2474       N  0.42736353  0.70102137  0.61186240    -0.44800
N2475       N  0.50286021  0.79218973  0.68802841    -0.42200
N2476       N  0.88941692  0.82429668  0.58134947    -0.43600
H2477       H  0.88705512  0.83813153  0.63660135     0.12500
H2478       H  0.50179286  0.77408259  0.63362658     0.09000
H2479       H  0.99791098  0.82759540  0.58732847     0.10100
H2480       H  0.47748581  0.70298334  0.56519441     0.15900
C2481       C  0.55556418  0.77450187  0.94202551    -0.02300
C2482       C  0.59261124  0.77403646  0.93902149     0.06300
C2483       C  0.61407647  0.75948574  0.95505637    -0.08300
C2484       C  0.59931770  0.74558930  0.97388144     0.03700
C2485       C  0.56212704  0.74566939  0.97687483    -0.15500
C2486       C  0.54070111  0.76036998  0.96078005    -0.08800
C2487       C  0.60947157  0.78930808  0.91949645     0.04700
C2488       C  0.60528403  0.82547220  0.91519958    -0.09900
C2489       C  0.61903142  0.84055543  0.89641134    -0.00300
C2490       C  0.63756666  0.81929910  0.88144792    -0.00500
C2491       C  0.64326875  0.78341518  0.88638019    -0.13500
C2492       C  0.62937782  0.76835120  0.90510825     0.00000
C2493       C  0.61403496  0.87794712  0.89306018     0.39300
C2494       C  0.63451387  0.73098099  0.90867417     0.35900
C2495       C  0.53228807  0.78945503  0.92609461     0.35700
C2496       C  0.62314396  0.73178550  0.98990434     0.36400
N2497       N  0.61008379  0.90793032  0.89035248    -0.44400
N2498       N  0.63868676  0.70105429  0.91151333    -0.44800
N2499       N  0.64248223  0.72130654  0.00279231    -0.42200
N2500       N  0.51378084  0.80174251  0.91335256    -0.43600
H2501       H  0.51225507  0.76141318  0.96303707     0.12500
H2502       H  0.64258662  0.75947198  0.95297442     0.09000
H2503       H  0.59083391  0.84191828  0.92650476     0.10100
H2504       H  0.65731582  0.76652331  0.87513223     0.15900
C2505       C  0.51103306  0.65543631  0.94470290    -0.02300
C2506       C  0.97482043  0.65936954  0.93974072     0.06300
C2507       C  0.95295784  0.67875538  0.95363329    -0.08300
C2508       C  0.96664557  0.69467025  0.97209871     0.03700
C2509       C  0.00300627  0.69130278  0.97695617    -0.15500
C2510       C  0.52484654  0.67144764  0.96322073    -0.08800
C2511       C  0.95935467  0.64546116  0.91954483     0.04700
C2512       C  0.95528979  0.60886063  0.91663996    -0.09900
C2513       C  0.94017102  0.59529032  0.89775140    -0.00300
C2514       C  0.92937628  0.61856184  0.88135514    -0.00500
C2515       C  0.93256711  0.65517968  0.88464126    -0.13500
C2516       C  0.94730384  0.66871082  0.90350580     0.00000
C2517       C  0.93443537  0.55768150  0.89592919     0.39300
C2518       C  0.95054612  0.70658471  0.90586014     0.35900
C2519       C  0.53458299  0.63570628  0.93088129     0.35700
C2520       C  0.94288552  0.71478166  0.98562006     0.36400
N2521       N  0.92932508  0.52761071  0.89446801    -0.44400
N2522       N  0.95301203  0.73690487  0.90785747    -0.44800
N2523       N  0.92373132  0.73068095  0.99649049    -0.42200
N2524       N  0.55358566  0.61984490  0.91989310    -0.43600
H2525       H  0.55266511  0.66830905  0.96706102     0.12500
H2526       H  0.92510167  0.68179969  0.94984594     0.09000
H2527       H  0.96356673  0.59096907  0.92924171     0.10100
H2528       H  0.92455744  0.67337432  0.87212854     0.15900
C2529       C  0.85564570  0.49888217  0.58457250    -0.02300
C2530       C  0.83272024  0.51557386  0.59935498     0.06300
C2531       C  0.79780098  0.52288902  0.59327156    -0.08300
C2532       C  0.78521517  0.01299047  0.57299481     0.03700
C2533       C  0.80766399  0.99484490  0.55849768    -0.15500
C2534       C  0.84303850  0.48880553  0.56429533    -0.08800
C2535       C  0.84510715  0.52777175  0.62073047     0.04700
C2536       C  0.84798214  0.56420102  0.62445096    -0.09900
C2537       C  0.85952405  0.57725421  0.64428998    -0.00300
C2538       C  0.86821012  0.55355330  0.66097182    -0.00500
C2539       C  0.86540295  0.51700767  0.65720249    -0.13500
C2540       C  0.85371085  0.50398989  0.63732457     0.00000
C2541       C  0.86386238  0.61498843  0.64667328     0.39300
C2542       C  0.84995948  0.96628176  0.63447841     0.35900
C2543       C  0.89227262  0.49235033  0.58976090     0.35700
C2544       C  0.74953996  0.02274546  0.56728188     0.36400
N2545       N  0.86749080  0.64522028  0.64850928    -0.44400
N2546       N  0.84696229  0.93604802  0.63224665    -0.44800
N2547       N  0.72090846  0.03081670  0.56292190    -0.42200
N2548       N  0.92162881  0.48714501  0.59395571    -0.43600
H2549       H  0.86058545  0.47539638  0.55312919     0.12500
H2550       H  0.78038576  0.53658378  0.60439770     0.09000
H2551       H  0.84160377  0.58250638  0.61165352     0.10100
H2552       H  0.87182696  0.49860002  0.66992606     0.15900
C2553       C  0.70603433  0.92741647  0.63517827    -0.02300
C2554       C  0.71571012  0.90307732  0.61898019     0.06300
C2555       C  0.71430597  0.86676987  0.62333481    -0.08300
C2556       C  0.70321760  0.85443011  0.64342722     0.03700
C2557       C  0.69313040  0.87876498  0.65961298    -0.15500
C2558       C  0.69438567  0.91511464  0.65516293    -0.08800
C2559       C  0.72823989  0.91478376  0.59754993     0.04700
C2560       C  0.76315565  0.90714660  0.59141594    -0.09900
C2561       C  0.77629207  0.91811224  0.57149774    -0.00300
C2562       C  0.75443455  0.93753901  0.55747349    -0.00500
C2563       C  0.71896627  0.94349170  0.56311190    -0.13500
C2564       C  0.70579214  0.93248097  0.58302776     0.00000
C2565       C  0.81194601  0.90839834  0.56557745     0.39300
C2566       C  0.66916835  0.93943194  0.58814713     0.35900
C2567       C  0.70920182  0.96507504  0.63198398     0.35700
C2568       C  0.70132251  0.81669818  0.64667361     0.36400
N2569       N  0.84049415  0.90049011  0.56082613    -0.44400
N2570       N  0.63983446  0.94510815  0.59225948    -0.44800
N2571       N  0.69983079  0.78644496  0.64920567    -0.42200
N2572       N  0.71183165  0.99526091  0.62950516    -0.43600
H2573       H  0.68712913  0.93402755  0.66754228     0.12500
H2574       H  0.72175249  0.84800023  0.61091030     0.09000
H2575       H  0.78024013  0.89274406  0.60230098     0.10100
H2576       H  0.70185284  0.95773738  0.55217696     0.15900
C2577       C  0.70473568  0.57738068  0.11924245    -0.02300
C2578       C  0.70706616  0.54039515  0.11624217     0.06300
C2579       C  0.69466766  0.51798892  0.13245707    -0.08300
C2580       C  0.68000085  0.53165206  0.15138331     0.03700
C2581       C  0.67710073  0.56870030  0.15434360    -0.15500
C2582       C  0.68985692  0.59119356  0.13818652    -0.08800
C2583       C  0.72339283  0.52436655  0.09670540     0.04700
C2584       C  0.75905778  0.53135155  0.09205376    -0.09900
C2585       C  0.77536053  0.51696986  0.07376995    -0.00300
C2586       C  0.75593781  0.49472441  0.05984201    -0.00500
C2587       C  0.72043614  0.98727740  0.06468269    -0.13500
C2588       C  0.70414971  0.00166913  0.08295935     0.00000
C2589       C  0.81147965  0.52684456  0.06931151     0.39300
C2590       C  0.66746543  0.99333630  0.08701815     0.35900
C2591       C  0.71730587  0.60163748  0.10308727     0.35700
C2592       C  0.67052813  0.50693565  0.16807765     0.36400
N2593       N  0.84039595  0.53540873  0.06611119    -0.44400
N2594       N  0.63811534  0.98650357  0.09033173    -0.44800
N2595       N  0.66311218  0.48726218  0.18154857    -0.42200
N2596       N  0.72756340  0.62104065  0.09016822    -0.43600
H2597       H  0.68830091  0.61959567  0.14040029     0.12500
H2598       H  0.69729317  0.48960366  0.13052395     0.09000
H2599       H  0.77414563  0.54837897  0.10269243     0.10100
H2600       H  0.70532345  0.97031314  0.05401673     0.15900
C2601       C  0.57499169  0.64659214  0.45573814    -0.02300
C2602       C  0.58952305  0.66879490  0.43991966     0.06300
C2603       C  0.59261481  0.70513381  0.44394254    -0.08300
C2604       C  0.58015522  0.71974991  0.46316670     0.03700
C2605       C  0.56303158  0.69795010  0.47831049    -0.15500
C2606       C  0.56163223  0.66130355  0.47471019    -0.08800
C2607       C  0.59965304  0.65506564  0.41854871     0.04700
C2608       C  0.57287310  0.64296273  0.40483424    -0.09900
C2609       C  0.58064186  0.63217180  0.38386078    -0.00300
C2610       C  0.61590280  0.63383692  0.37626980    -0.00500
C2611       C  0.64275033  0.64541887  0.39023163    -0.13500
C2612       C  0.63493134  0.65571227  0.41129617     0.00000
C2613       C  0.55166919  0.62098052  0.37033920     0.39300
C2614       C  0.66352682  0.66597936  0.42534993     0.35900
C2615       C  0.57431873  0.60869043  0.45297405     0.35700
C2616       C  0.58657278  0.75674741  0.46731191     0.36400
N2617       N  0.52842053  0.61193542  0.35955925    -0.44400
N2618       N  0.68647189  0.67394352  0.43666248    -0.44800
N2619       N  0.59216035  0.78635488  0.47057235    -0.42200
N2620       N  0.57421947  0.57830565  0.45077684    -0.43600
H2621       H  0.54965445  0.64423999  0.48665417     0.12500
H2622       H  0.60458186  0.72211463  0.43194550     0.09000
H2623       H  0.54566643  0.64265385  0.41044052     0.10100
H2624       H  0.66999863  0.64606343  0.38476158     0.15900
C2625       C  0.82454504  0.55613587  0.40404745    -0.02300
C2626       C  0.84823953  0.54341948  0.41969214     0.06300
C2627       C  0.88477215  0.54556884  0.41586518    -0.08300
C2628       C  0.89792294  0.55990454  0.39669306     0.03700
C2629       C  0.87426031  0.57249153  0.38092275    -0.15500
C2630       C  0.83765433  0.57078596  0.38498830    -0.08800
C2631       C  0.83546639  0.52759331  0.44009945     0.04700
C2632       C  0.83968247  0.99118828  0.44343982    -0.09900
C2633       C  0.82772609  0.97525177  0.46243139    -0.00300
C2634       C  0.81075478  0.99590600  0.47838481    -0.00500
C2635       C  0.80785955  0.53255553  0.47529918    -0.13500
C2636       C  0.81981686  0.54842236  0.45634904     0.00000
C2637       C  0.83452446  0.93806655  0.46544529     0.39300
C2638       C  0.81609645  0.58618147  0.45401843     0.35900
C2639       C  0.78670106  0.55309216  0.40682024     0.35700
C2640       C  0.93576759  0.56209589  0.39381558     0.36400
N2641       N  0.84026254  0.90826075  0.46768138    -0.44400
N2642       N  0.81309075  0.61645004  0.45215440    -0.44800
N2643       N  0.96610329  0.56393126  0.39150628    -0.42200
N2644       N  0.75638283  0.55055973  0.40898522    -0.43600
H2645       H  0.81910245  0.57968911  0.37287992     0.12500
H2646       H  0.90306324  0.53601197  0.42793475     0.09000
H2647       H  0.85240299  0.97520332  0.43115916     0.10100
H2648       H  0.79545939  0.54875814  0.48759605     0.15900
C2649       C  0.58284867  0.73720821  0.09174841    -0.02300
C2650       C  0.57908386  0.77318801  0.09735673     0.06300
C2651       C  0.56472155  0.79678490  0.08238194    -0.08300
C2652       C  0.55329658  0.78488310  0.06224343     0.03700
C2653       C  0.55634250  0.74874502  0.05683467    -0.15500
C2654       C  0.57173992  0.72538289  0.07157118    -0.08800
C2655       C  0.59063071  0.78669311  0.11862024     0.04700
C2656       C  0.62644271  0.78403848  0.12415830    -0.09900
C2657       C  0.63854834  0.79561524  0.14418650    -0.00300
C2658       C  0.61440547  0.80986418  0.15932029    -0.00500
C2659       C  0.57864693  0.81342031  0.15348419    -0.13500
C2660       C  0.56666341  0.80212736  0.13330718     0.00000
C2661       C  0.67613727  0.79414040  0.14823828     0.39300
C2662       C  0.52964080  0.80623128  0.12814389     0.35900
C2663       C  0.59724373  0.71178636  0.10660799     0.35700
C2664       C  0.03772356  0.81006286  0.04768140     0.36400
N2665       N  0.70628443  0.79316899  0.15142211    -0.44400
N2666       N  0.50005443  0.80980790  0.12390390    -0.44800
N2667       N  0.02541074  0.83035536  0.03601024    -0.42200
N2668       N  0.60894400  0.69149817  0.11850965    -0.43600
H2669       H  0.57450008  0.69765633  0.06740533     0.12500
H2670       H  0.56228424  0.82456700  0.08651079     0.09000
H2671       H  0.64510130  0.77313440  0.11264195     0.10100
H2672       H  0.55988001  0.82465184  0.16480635     0.15900
C2673       C  0.96846268  0.70589054  0.08988888    -0.02300
C2674       C  0.97287227  0.67023604  0.09614925     0.06300
C2675       C  0.98973182  0.64676601  0.08190923    -0.08300
C2676       C  0.00344444  0.65841618  0.06227477     0.03700
C2677       C  0.99991139  0.69421708  0.05635845    -0.15500
C2678       C  0.98187508  0.71743824  0.07014370    -0.08800
C2679       C  0.96062202  0.65708348  0.11749811     0.04700
C2680       C  0.92500747  0.66117016  0.12340978    -0.09900
C2681       C  0.91262523  0.64987959  0.14347940    -0.00300
C2682       C  0.93611559  0.63348006  0.15813940    -0.00500
C2683       C  0.97155254  0.62862627  0.15194978    -0.13500
C2684       C  0.98394787  0.64033801  0.13198719     0.00000
C2685       C  0.87548350  0.65469365  0.14817345     0.39300
C2686       C  0.52096671  0.63551475  0.12701376     0.35900
C2687       C  0.95114108  0.73139622  0.10360615     0.35700
C2688       C  0.02226858  0.63354163  0.04883434     0.36400
N2689       N  0.84571101  0.65869914  0.15184409    -0.44400
N2690       N  0.55058434  0.63132749  0.12300724    -0.44800
N2691       N  0.03737757  0.61370884  0.03799625    -0.42200
N2692       N  0.93702955  0.75192500  0.11445105    -0.43600
H2693       H  0.47876919  0.74509312  0.06554593     0.12500
H2694       H  0.99268058  0.61899790  0.08634583     0.09000
H2695       H  0.90661966  0.67321087  0.11217212     0.10100
H2696       H  0.99000280  0.61622345  0.16296500     0.15900
C2697       C  0.73106767  0.88645901  0.40283963    -0.02300
C2698       C  0.70849322  0.89890831  0.41923572     0.06300
C2699       C  0.67175808  0.89882437  0.41588216    -0.08300
C2700       C  0.65734130  0.88652325  0.39647408     0.03700
C2701       C  0.67993628  0.87428982  0.37995723    -0.15500
C2702       C  0.71672228  0.87421766  0.38348871    -0.08800
C2703       C  0.72287916  0.91275236  0.43979567     0.04700
C2704       C  0.72008964  0.94900137  0.44427311    -0.09900
C2705       C  0.73421632  0.96332112  0.46320178    -0.00300
C2706       C  0.75229181  0.94125829  0.47780266    -0.00500
C2707       C  0.75405193  0.90479515  0.47357029    -0.13500
C2708       C  0.73949235  0.89044184  0.45481329     0.00000
C2709       C  0.72820881  0.00027393  0.46770063     0.39300
C2710       C  0.74125330  0.85268516  0.45153526     0.35900
C2711       C  0.76908479  0.88694174  0.40530985     0.35700
C2712       C  0.61934954  0.88541830  0.39423458     0.36400
N2713       N  0.72308292  0.52989018  0.47121020    -0.44400
N2714       N  0.74261314  0.82240467  0.44898085    -0.44800
N2715       N  0.58889438  0.88427042  0.39244473    -0.42200
N2716       N  0.79951286  0.88730802  0.40738345    -0.43600
H2717       H  0.73449042  0.86537584  0.37087345     0.12500
H2718       H  0.65432226  0.90816248  0.42854170     0.09000
H2719       H  0.70670417  0.96612061  0.43295337     0.10100
H2720       H  0.76707123  0.88750358  0.48494959     0.15900
C2721       C  0.80606923  0.90407936  0.09153053    -0.02300
C2722       C  0.84238076  0.90793396  0.09632306     0.06300
C2723       C  0.86394230  0.92743393  0.08235143    -0.08300
C2724       C  0.84995686  0.94317580  0.06392884     0.03700
C2725       C  0.81358787  0.93966347  0.05917017    -0.15500
C2726       C  0.79197727  0.91996297  0.07307979    -0.08800
C2727       C  0.85832804  0.89310831  0.11619129     0.04700
C2728       C  0.85874664  0.85635370  0.11943932    -0.09900
C2729       C  0.87302820  0.84185973  0.13827438    -0.00300
C2730       C  0.88775964  0.86433660  0.15407079    -0.00500
C2731       C  0.88830718  0.90097653  0.15037097    -0.13500
C2732       C  0.87344594  0.91543957  0.13185991     0.00000
C2733       C  0.87243543  0.80397763  0.14094333     0.39300
C2734       C  0.87226912  0.95346512  0.12991848     0.35900
C2735       C  0.78271087  0.88452885  0.10550266     0.35700
C2736       C  0.87336794  0.96363011  0.05048984     0.36400
N2737       N  0.87190189  0.77362557  0.14316366    -0.44400
N2738       N  0.87120872  0.98392954  0.12845701    -0.44800
N2739       N  0.89220498  0.98024166  0.03988830    -0.42200
N2740       N  0.76410730  0.86873756  0.11671076    -0.43600
H2741       H  0.76414276  0.91674014  0.06940349     0.12500
H2742       H  0.89183080  0.93051334  0.08594805     0.09000
H2743       H  0.84761490  0.83900780  0.10730571     0.10100
H2744       H  0.89879343  0.91873908  0.16250266     0.15900
C2745       C  0.49115563  0.79781584  0.45281479    -0.02300
C2746       C  0.97557106  0.77417837  0.43803247     0.06300
C2747       C  0.97170461  0.73851759  0.44374342    -0.08300
C2748       C  0.98437801  0.72603154  0.46347527     0.03700
C2749       C  0.50228979  0.74920709  0.47758821    -0.15500
C2750       C  0.50441796  0.78521566  0.47235488    -0.08800
C2751       C  0.96405880  0.78590093  0.41633324     0.04700
C2752       C  0.98973068  0.79699315  0.40150475    -0.09900
C2753       C  0.98025525  0.80738459  0.38068369    -0.00300
C2754       C  0.94434010  0.80626654  0.37423480    -0.00500
C2755       C  0.91873197  0.79507702  0.38916129    -0.13500
C2756       C  0.92822342  0.78540832  0.41009981     0.00000
C2757       C  0.00811169  0.81816562  0.36620165     0.39300
C2758       C  0.90060687  0.77668456  0.42522160     0.35900
C2759       C  0.49284979  0.83524028  0.44853381     0.35700
C2760       C  0.97734375  0.68980198  0.46927471     0.36400
N2761       N  0.53049408  0.82690476  0.35467125    -0.44400
N2762       N  0.87842844  0.77007078  0.43739905    -0.44800
N2763       N  0.97129394  0.66085412  0.47396687    -0.42200
N2764       N  0.49385684  0.86529779  0.44522027    -0.43600
H2765       H  0.51698272  0.80343942  0.48345747     0.12500
H2766       H  0.95885591  0.72038455  0.43270412     0.09000
H2767       H  0.51735726  0.79730879  0.40620988     0.10100
H2768       H  0.89103111  0.79482426  0.38466413     0.15900
loop_ 
_geom_bond_atom_site_label_1 
_geom_bond_atom_site_label_2 
_geom_bond_distance 
_geom_bond_site_symmetry_2 
_ccdc_geom_bond_type 
C1            N2   1.362       .  A
C1            N6   1.360       .  A
C1          C678   1.489       .  S
N2            C3   1.360       .  A
C3            N4   1.356       .  A
C3          C102   1.469       .  S
N4            C5   1.356       .  A
C5            N6   1.358       .  A
C5           C45   1.466       .  S
C7            N8   1.359       .  A
C7           N12   1.360       .  A
C7          C654   1.484       .  S
N8            C9   1.354       .  A
C9           N10   1.356       .  A
C9           C33   1.461       .  S
N10          C11   1.357       .  A
C11          N12   1.359       .  A
C11         C114   1.463       .  S
C13          N14   1.359       .  A
C13          N18   1.363       .  A
C13         C625   1.485       .  S
N14          C15   1.355       .  A
C15          N16   1.355       .  A
C15         C103   1.460       .  S
N16          C17   1.356       .  A
C17          N18   1.361       .  A
C17          C68   1.464       .  S
C19          N20   1.357       .  A
C19          N24   1.362       .  A
C19         C606   1.490       .  S
N20          C21   1.356       .  A
C21          N22   1.354       .  A
C21         C137   1.458       .  S
N22          C23   1.355       .  A
C23          N24   1.361       .  A
C23          C34   1.464       .  S
N25          N26   1.321       .  A
N25        N1415   1.315       .  A
N25         Mn54   2.203   1_655  S
N26        C1417   1.353       .  A
N27          N28   1.321       .  A
N27        N1413   1.317       .  A
N27        Mn735   2.215   1_545  S
N28          C34   1.354       .  A
N29          N30   1.320       .  A
N29        N1411   1.317       .  A
N29        Mn746   2.190   1_645  S
N30        C1418   1.350       .  A
N31          N32   1.318       .  A
N31        N1409   1.315       .  A
N31         Mn43   2.192       .  S
N32          C33   1.350       .  A
C33        N1410   1.353       .  A
C34        N1414   1.350       .  A
N35          N36   1.324       .  A
N35        N1425   1.316       .  A
N35        Mn757   2.214   1_645  S
N36        C1428   1.354       .  A
N37          N38   1.321       .  A
N37        N1423   1.316       .  A
N37         Mn43   2.211       .  S
N38          C45   1.353       .  A
N39          N40   1.320       .  A
N39        N1421   1.316       .  A
N39         Mn65   2.196   1_655  S
N40        C1429   1.352       .  A
N41          N42   1.319       .  A
N41        N1419   1.316       .  A
N41        Mn735   2.198   1_545  S
N42          C44   1.350       .  A
Mn43        N719   2.215       .  S
Mn43        N733   2.198       .  S
Mn43      Cl1451   2.524       .  S
C44        N1420   1.354       .  A
C44          C78   1.467       .  S
C45        N1424   1.352       .  A
N46          N47   1.323       .  A
N46          N52   1.315       .  A
N46        Mn746   2.209   1_545  S
N47          C55   1.355       .  A
N48          N50   1.315       .  A
N48          N49   1.321       .  A
N48         Mn66   2.208       .  S
N49          C56   1.353       .  A
N50          N51   1.319       .  A
N50         Mn54   2.189       .  S
N51          C56   1.351       .  A
N52          N53   1.318       .  A
N52        Mn758   2.197   1_545  S
N53          C55   1.350       .  A
Mn54        N721   2.190   1_455  S
Mn54        N738   2.209       .  S
Mn54        Cl67   2.569       .  S
C55          C90   1.465       .  S
C56          C74   1.464       .  S
N57          N58   1.324       .  A
N57          N63   1.316       .  A
N57         Mn65   2.208       .  S
N58          C68   1.354       .  A
N59          N60   1.318       .  A
N59          N61   1.317       .  A
N59        Mn758   2.199   1_545  S
N60          C69   1.350       .  A
N61          N62   1.319       .  A
N61        Mn757   2.193   1_545  S
N62          C69   1.351       .  A
N63          N64   1.318       .  A
N63         Mn66   2.194       .  S
N64          C68   1.349       .  A
Mn65        N727   2.214   1_455  S
Mn65        N753   2.193       .  S
Mn65        Cl67   2.570       .  S
Mn66        N744   2.197       .  S
Mn66        N751   2.199       .  S
Mn66        Cl67   2.521       .  S
Cl67      Mn1427   2.524   1_455  S
C69          C86   1.458       .  S
C70          N71   1.358       .  A
C70          N75   1.359       .  A
C70         C582   1.484       .  S
N71          C72   1.356       .  A
C72          N73   1.357       .  A
C72         C113   1.464       .  S
N73          C74   1.357       .  A
C74          N75   1.359       .  A
C76          N77   1.362       .  A
C76          N81   1.361       .  A
C76         C553   1.486       .  S
N77          C78   1.359       .  A
C78          N79   1.356       .  A
N79          C80   1.356       .  A
C80          N81   1.358       .  A
C80         C125   1.463       .  S
C82          N83   1.358       .  A
C82          N87   1.357       .  A
C82         C534   1.478       .  S
N83          C84   1.356       .  A
C84          N85   1.355       .  A
C84         C124   1.460       .  S
N85          C86   1.355       .  A
C86          N87   1.355       .  A
C88          N89   1.360       .  A
C88          N93   1.362       .  A
C88         C505   1.485       .  S
N89          C90   1.355       .  A
C90          N91   1.355       .  A
N91          C92   1.357       .  A
C92          N93   1.360       .  A
C92         C138   1.465       .  S
N94          N95   1.321       .  A
N94         N100   1.317       .  A
N94        Mn123   2.199       .  S
N95         C102   1.352       .  A
N96          N98   1.315       .  A
N96          N97   1.318       .  A
N96        Mn112   2.188       .  S
N97         C103   1.349       .  A
N98          N99   1.322       .  A
N98        Mn123   2.207       .  S
N99         C103   1.353       .  A
N100        N101   1.321       .  A
N100       Mn112   2.215       .  S
N101        C102   1.354       .  A
N104        N110   1.317       .  A
N104        N105   1.319       .  A
N104       Mn134   2.194       .  S
N105        C113   1.352       .  A
N106        N107   1.318       .  A
N106        N108   1.315       .  A
N106       Mn112   2.191       .  S
N107        C114   1.350       .  A
N108        N109   1.323       .  A
N108       Mn134   2.205       .  S
N109        C114   1.353       .  A
N110        N111   1.321       .  A
N110       Mn112   2.211       .  S
N111        C113   1.352       .  A
Mn112      Cl136   2.522       .  S
N115        N116   1.320       .  A
N115        N121   1.317       .  A
N115       Mn123   2.196       .  S
N116        C124   1.352       .  A
N117        N119   1.315       .  A
N117        N118   1.318       .  A
N117       Mn135   2.192       .  S
N118        C125   1.348       .  A
N119        N120   1.323       .  A
N119       Mn123   2.206       .  S
N120        C125   1.354       .  A
N121        N122   1.319       .  A
N121       Mn135   2.201       .  S
N122        C124   1.351       .  A
Mn123      Cl136   2.570       .  S
N126        N127   1.317       .  A
N126        N132   1.316       .  A
N126       Mn134   2.185       .  S
N127        C137   1.349       .  A
N128        N129   1.318       .  A
N128        N130   1.315       .  A
N128       Mn135   2.194       .  S
N129        C138   1.349       .  A
N130        N131   1.324       .  A
N130       Mn134   2.207       .  S
N131        C138   1.354       .  A
N132        N133   1.320       .  A
N132       Mn135   2.205       .  S
N133        C137   1.353       .  A
Mn134      Cl136   2.568       .  S
Mn135      Cl136   2.519       .  S
C139        C630   1.490       .  S
C139        C140   1.420       .  A
C139        C144   1.405       .  A
C140        C558   1.492       .  S
C140        C141   1.408       .  A
C141        C142   1.404       .  A
C141        H838   1.084       .  S
C142        C457   1.489       .  S
C142        C143   1.414       .  A
C143        C486   1.486       .  S
C143        C144   1.400       .  A
C144        H145   1.085       .  S
H146        C833   1.084   1_545  S
C147        C577   1.484       .  S
C147        C148   1.413       .  A
C147        C152   1.403       .  A
C148       C1985   1.488   1_455  S
C148       C1533   1.397       .  A
C149       C1532   1.397       .  A
C149       C1534   1.403   1_554  A
C149        H154   1.085       .  S
C150       C1817   1.484       .  S
C150        C151   1.420       .  A
C150       C1533   1.403   1_556  A
C151        C409   1.496       .  S
C151        C152   1.406   1_556  A
C152        H153   1.084       .  S
C155        C529   1.482       .  S
C155        C156   1.417       .  A
C155        C160   1.402       .  A
C156        C673   1.491       .  S
C156        C157   1.402       .  A
C157        C158   1.404       .  A
C157       H1546   1.085   1_455  S
C158        C390   1.480       .  S
C158        C159   1.413       .  A
C159        C366   1.488       .  S
C159        C160   1.400       .  A
C160        H161   1.085       .  S
H162       C1541   1.085       .  S
C163       C1202   1.487       .  S
C163        C164   1.418       .  A
C163        C168   1.409       .  A
C164        C649   1.489       .  S
C164        C165   1.405       .  A
C165        C166   1.401   1_554  A
C165        H170   1.084       .  S
C166        C342   1.480       .  S
C166        C167   1.412   1_556  A
C167        C318   1.492   1_554  S
C167        C168   1.404       .  A
C168        H861   1.084       .  S
H169        C860   1.084   1_545  S
C171        N172   1.359       .  A
C171        N176   1.359       .  A
C171        C337   1.475       .  S
N172        C173   1.358       .  A
C173        N174   1.355       .  A
C173        C227   1.463       .  S
N174        C175   1.356       .  A
C175        N176   1.358       .  A
C175        C272   1.462       .  S
C177        N178   1.360       .  A
C177        N182   1.359       .  A
C177        C438   1.479       .  S
N178        C179   1.358       .  A
C179        N180   1.357       .  A
C179        C295   1.462       .  S
N180        C181   1.355       .  A
C181        N182   1.355       .  A
C181        C226   1.461       .  S
C183        N184   1.359       .  A
C183        N188   1.364       .  A
C183        C313   1.491       .  S
N184        C185   1.358       .  A
C185        N186   1.357       .  A
C185        C294   1.467       .  S
N186        C187   1.358       .  A
C187        N188   1.362       .  A
C187        C251   1.474       .  S
C189        N190   1.363       .  A
C189        N194   1.358       .  A
C189        C414   1.490       .  S
N190        C191   1.360       .  A
C191        N192   1.356       .  A
C191        C273   1.466       .  S
N192        C193   1.356       .  A
C193        N194   1.355       .  A
C193        C250   1.458       .  S
C195        N196   1.363       .  A
C195        N200   1.360       .  A
C195        C361   1.486       .  S
N196        C197   1.360       .  A
C197        N198   1.356       .  A
C197        C237   1.466       .  S
N198        C199   1.356       .  A
C199        N200   1.357       .  A
C199        C308   1.461       .  S
C201        N202   1.358       .  A
C201        N206   1.358       .  A
C201        C462   1.481       .  S
N202        C203   1.357       .  A
C203        N204   1.356       .  A
C203        C216   1.463       .  S
N204        C205   1.356       .  A
C205        N206   1.359       .  A
C205        C307   1.463       .  S
N207        N208   1.324       .  A
N207        N213   1.315       .  A
N207       Mn236   2.212       .  S
N208        C215   1.355       .  A
N209        N211   1.317       .  A
N209        N210   1.320       .  A
N209       Mn225   2.209       .  S
N210        C216   1.353       .  A
N211        N212   1.319       .  A
N211       Mn236   2.194       .  S
N212        C216   1.351       .  A
N213        N214   1.317       .  A
N213       Mn225   2.189       .  S
N214        C215   1.349       .  A
C215        C254   1.464       .  S
N217        N223   1.315       .  A
N217        N218   1.321       .  A
N217       Mn247   2.201       .  S
N218        C226   1.353       .  A
N219        N220   1.321       .  A
N219        N221   1.316       .  A
N219       Mn225   2.211       .  S
N220        C227   1.354       .  A
N221        N222   1.319       .  A
N221       Mn247   2.190       .  S
N222        C227   1.350       .  A
N223        N224   1.319       .  A
N223       Mn225   2.194       .  S
N224        C226   1.350       .  A
Mn225      Cl249   2.523       .  S
N228        N229   1.324       .  A
N228        N234   1.317       .  A
N228       Mn236   2.218       .  S
N229        C237   1.355       .  A
N230        N232   1.316       .  A
N230        N231   1.321       .  A
N230       Mn248   2.213       .  S
N231        C238   1.353       .  A
N232        N233   1.319       .  A
N232       Mn236   2.187       .  S
N233        C238   1.350       .  A
N234        N235   1.318       .  A
N234       Mn248   2.190       .  S
N235        C237   1.348       .  A
Mn236      Cl249   2.569       .  S
C238        C260   1.462       .  S
N239        N240   1.321       .  A
N239        N245   1.314       .  A
N239       Mn247   2.197       .  S
N240        C250   1.353       .  A
N241        N242   1.321       .  A
N241        N243   1.317       .  A
N241       Mn248   2.222       .  S
N242        C251   1.354       .  A
N243        N244   1.323       .  A
N243       Mn247   2.203       .  S
N244        C251   1.353       .  A
N245        N246   1.318       .  A
N245       Mn248   2.187       .  S
N246        C250   1.349       .  A
Mn247      Cl249   2.569       .  S
Mn248      Cl249   2.520       .  S
C252        N253   1.360       .  A
C252        N257   1.359       .  A
C252        C385   1.474       .  S
N253        C254   1.359       .  A
C254        N255   1.357       .  A
N255        C256   1.356       .  A
C256        N257   1.356       .  A
C256        C284   1.464       .  S
C258        N259   1.358       .  A
C258        N263   1.359       .  A
C258        C481   1.481       .  S
N259        C260   1.358       .  A
C260        N261   1.355       .  A
N261        C262   1.356       .  A
C262        N263   1.358       .  A
C262        C283   1.461       .  S
N264        N265   1.320       .  A
N264        N270   1.317       .  A
N264      Mn1677   2.193       .  S
N265        C272   1.351       .  A
N266        N268   1.316       .  A
N266        N267   1.319       .  A
N266       Mn282   2.199       .  S
N267        C273   1.351       .  A
N268        N269   1.323       .  A
N268       Mn293   2.208       .  S
N269        C273   1.353       .  A
N270        N271   1.319       .  A
N270      Mn1666   2.208       .  S
N271        C272   1.352       .  A
N274        N280   1.317       .  A
N274        N275   1.319       .  A
N274       Mn304   2.192       .  S
N275        C283   1.351       .  A
N276        N277   1.319       .  A
N276        N278   1.315       .  A
N276      Mn1666   2.196       .  S
N277        C284   1.350       .  A
N278        N279   1.323       .  A
N278      Mn1688   2.208       .  S
N279        C284   1.354       .  A
N280        N281   1.320       .  A
N280       Mn282   2.209       .  S
N281        C283   1.352       .  A
Mn282      N1654   2.208   1_455  S
Mn282      N1660   2.196   1_455  S
Mn282      Cl306   2.522       .  S
N285        N286   1.320       .  A
N285        N291   1.317       .  A
N285       Mn985   2.196   1_545  S
N286        C294   1.352       .  A
N287        N289   1.315       .  A
N287        N288   1.317       .  A
N287      Mn1689   2.185       .  S
N288        C295   1.348       .  A
N289        N290   1.323       .  A
N289      Mn2369   2.208   1_545  S
N290        C295   1.354       .  A
N291        N292   1.321       .  A
N291       Mn305   2.215       .  S
N292        C294   1.354       .  A
Mn293      N1648   2.193   1_455  S
Mn293       N977   2.196       .  S
Mn293      N2365   2.208   1_455  S
Mn293      Cl306   2.571       .  S
N296        N297   1.319       .  A
N296        N302   1.317       .  A
N296      Mn2380   2.189   1_545  S
N297        C307   1.350       .  A
N298        N299   1.316       .  A
N298        N300   1.315       .  A
N298       Mn305   2.181       .  S
N299        C308   1.347       .  A
N300        N301   1.324       .  A
N300       Mn996   2.212   1_545  S
N301        C308   1.355       .  A
N302        N303   1.321       .  A
N302      Mn1689   2.215       .  S
N303        C307   1.354       .  A
Mn304      N1662   2.208   1_455  S
Mn304      N2372   2.189   1_455  S
Mn304       N992   2.212       .  S
Mn304      Cl306   2.570       .  S
Mn305      N1671   2.185   1_455  S
Mn305      N1686   2.215   1_455  S
Mn305      Cl998   2.520   1_545  S
Cl306      Mn997   2.520       .  S
C309        C310   1.412       .  A
C309        C314   1.402       .  A
C309        C323   1.444       .  S
C310        C315   1.493       .  S
C310        C311   1.403       .  A
C311        C312   1.404       .  A
C311       H1022   1.085   1_545  S
C312        C313   1.418       .  A
C312        C324   1.445   1_545  S
C313        C314   1.406       .  A
C314        H329   1.084       .  S
C315        C316   1.406   1_545  A
C315        C320   1.412       .  A
C316        C317   1.405       .  A
C316        H331   1.085       .  S
C317       C1010   1.411       .  A
C317        C321   1.443       .  S
C318       C1009   1.411       .  A
C318       C1011   1.403       .  A
C319        C320   1.400       .  A
C319       C1010   1.403   1_545  A
C319       H1024   1.082       .  S
C320        C322   1.444       .  S
C321        N325   1.157       .  T
C322        N326   1.157       .  T
C323        N328   1.157       .  T
C324       N1019   1.158       .  T
N327       C1016   1.158       .  T
H330       C1003   1.085       .  S
H332       C1011   1.082       .  S
C333        C334   1.414       .  A
C333        C338   1.400       .  A
C333        C347   1.445       .  S
C334        C339   1.491       .  S
C334        C335   1.406       .  A
C335        C336   1.401       .  A
C335        H354   1.085       .  S
C336        C337   1.409       .  A
C336        C348   1.444       .  S
C337        C338   1.402       .  A
C338        H353   1.085       .  S
C339        C340   1.406       .  A
C339        C344   1.414       .  A
C340        C341   1.398       .  A
C340        H355   1.084       .  S
C341        C342   1.408       .  A
C341        C345   1.444       .  S
C342        C343   1.402       .  A
C343        C344   1.401       .  A
C343        H356   1.085       .  S
C344        C346   1.444       .  S
C345        N349   1.157       .  T
C346        N350   1.157       .  T
C347        N352   1.157       .  T
C348        N351   1.157       .  T
C357        C358   1.410       .  A
C357        C362   1.402       .  A
C357        C371   1.443       .  S
C358        C363   1.486       .  S
C358        C359   1.401       .  A
C359        C360   1.402       .  A
C359        H378   1.085       .  S
C360        C361   1.418       .  A
C360        C372   1.445       .  S
C361        C362   1.404       .  A
C362        H377   1.085       .  S
C363        C364   1.402       .  A
C363        C368   1.412       .  A
C364        C365   1.401       .  A
C364        H379   1.085       .  S
C365        C366   1.413       .  A
C365        C369   1.444       .  S
C366        C367   1.404       .  A
C367        C368   1.403       .  A
C367        H380   1.085       .  S
C368        C370   1.444       .  S
C369        N373   1.157       .  T
C370        N374   1.157       .  T
C371        N376   1.157       .  T
C372        N375   1.158       .  T
C381        C382   1.411       .  A
C381        C386   1.404       .  A
C381        C395   1.443       .  S
C382        C387   1.479       .  S
C382        C383   1.399       .  A
C383        C384   1.398       .  A
C383       H1786   1.085       .  S
C384        C385   1.413       .  A
C384        C396   1.445       .  S
C385        C386   1.402       .  A
C386        H401   1.084       .  S
C387        C388   1.401       .  A
C387        C392   1.410       .  A
C388        C389   1.399       .  A
C388        H403   1.085       .  S
C389       C1774   1.410       .  A
C389        C393   1.444       .  S
C390        C391   1.403   1_455  A
C390       C1773   1.410       .  A
C391       C1776   1.401       .  A
C391        H404   1.085       .  S
C392       C1775   1.401       .  A
C392       C1778   1.444       .  S
C393        N397   1.157       .  T
C394       C1776   1.444       .  S
C394        N398   1.157       .  T
C395        N400   1.157       .  T
C396       N1783   1.157       .  T
N399       C1780   1.157   1_455  T
H402       C1767   1.085   1_455  S
C405        C406   1.412       .  A
C405        C410   1.402       .  A
C405        C419   1.444       .  S
C406        C411   1.490       .  S
C406        C407   1.402       .  A
C407        C408   1.401       .  A
C407        H426   1.085       .  S
C408        C409   1.417       .  A
C408        C420   1.444       .  S
C409        C410   1.406       .  A
C410        H425   1.085       .  S
C411        C412   1.404       .  A
C411        C416   1.411       .  A
C412        C413   1.402       .  A
C412        H427   1.085       .  S
C413        C414   1.413       .  A
C413        C417   1.443       .  S
C414        C415   1.410       .  A
C415        C416   1.401       .  A
C415        H428   1.085       .  S
C416        C418   1.445       .  S
C417        N421   1.157       .  T
C418        N422   1.158       .  T
C419        N424   1.157       .  T
C420        N423   1.157   1_556  T
C429        C434   1.402       .  A
C429       C1814   1.411   1_455  A
C429        C443   1.443       .  S
C430        C435   1.482       .  S
C430        C431   1.401       .  A
C430       C1813   1.411       .  A
C431        C432   1.396       .  A
C431        H450   1.085       .  S
C432        C433   1.413       .  A
C432        C444   1.445       .  S
C433       C1534   1.484       .  S
C433       C1818   1.403       .  A
C434       C1817   1.403       .  A
C434        H449   1.085       .  S
C435        C436   1.404       .  A
C435        C440   1.409       .  A
C436        C437   1.404       .  A
C436        H451   1.085       .  S
C437        C438   1.411       .  A
C437        C441   1.443       .  S
C438        C439   1.405       .  A
C439        C440   1.396       .  A
C439        H452   1.085       .  S
C440        C442   1.445       .  S
C441        N445   1.157       .  T
C442        N446   1.157       .  T
C443        N448   1.157       .  T
C444        N447   1.157       .  T
C453        C454   1.410   1_565  A
C453        C458   1.402       .  A
C453        C467   1.443       .  S
C454        C459   1.483       .  S
C454        C455   1.401       .  A
C455       C1148   1.399       .  A
C455        H474   1.085       .  S
C456        C457   1.414       .  A
C456       C1147   1.399       .  A
C456        C468   1.443       .  S
C457       C1150   1.404       .  A
C458       C1149   1.404       .  A
C458        H473   1.085       .  S
C459        C460   1.401       .  A
C459        C464   1.411       .  A
C460        C461   1.399       .  A
C460        H475   1.085       .  S
C461        C462   1.414       .  A
C461        C465   1.444       .  S
C462        C463   1.406       .  A
C463        C464   1.402       .  A
C463        H476   1.085   1_545  S
C464       C1158   1.444   1_545  S
C465        N469   1.157       .  T
C466       C1156   1.444       .  S
C466        N470   1.157       .  T
C467        N472   1.157       .  T
C468        N471   1.157       .  T
C477        C478   1.411       .  A
C477        C482   1.400       .  A
C477        C491   1.444       .  S
C478        C483   1.484       .  S
C478        C479   1.402       .  A
C479        C480   1.400       .  A
C479        H498   1.085       .  S
C480        C481   1.414       .  A
C480        C492   1.444       .  S
C481        C482   1.405       .  A
C482        H497   1.085       .  S
C483        C484   1.403       .  A
C483        C488   1.412       .  A
C484        C485   1.399       .  A
C484        H499   1.085       .  S
C485        C486   1.411       .  A
C485        C489   1.444       .  S
C486        C487   1.403       .  A
C487        C488   1.400       .  A
C487        H500   1.085       .  S
C488        C490   1.444       .  S
C489        N493   1.157       .  T
C490        N494   1.157       .  T
C491        N496   1.157       .  T
C492        N495   1.157       .  T
C501        C502   1.414       .  A
C501        C506   1.405       .  A
C501        C515   1.444       .  S
C502        C507   1.490       .  S
C502        C503   1.401       .  A
C503        C504   1.399       .  A
C503        H522   1.085   1_545  S
C504        C505   1.417       .  A
C504        C516   1.445       .  S
C505        C506   1.405       .  A
C506        H521   1.085       .  S
C507        C508   1.403       .  A
C507       C1204   1.412       .  A
C508        C509   1.402       .  A
C508        H523   1.085       .  S
C509        C510   1.413   1_545  A
C509        C513   1.442       .  S
C510        C855   1.487       .  S
C510       C1203   1.404       .  A
C511        C512   1.401       .  A
C511       C1202   1.404       .  A
C511        H524   1.085       .  S
C512       C1199   1.412       .  A
C512        C514   1.444       .  S
C513        N517   1.157       .  T
C514        N518   1.157       .  T
C515        N520   1.157       .  T
C516        N519   1.157   1_545  T
C525        C526   1.408       .  A
C525        C530   1.397       .  A
C525        C539   1.444       .  S
C526        C531   1.476       .  S
C526        C527   1.402       .  A
C527        C528   1.398       .  A
C527        H546   1.085       .  S
C528        C529   1.411       .  A
C528        C540   1.443       .  S
C529        C530   1.405       .  A
C530        H545   1.085       .  S
C531        C532   1.401       .  A
C531        C536   1.407       .  A
C532        C533   1.397       .  A
C532        H547   1.085       .  S
C533        C534   1.415       .  A
C533        C537   1.445       .  S
C534        C535   1.406       .  A
C535        C536   1.398       .  A
C535        H548   1.084       .  S
C536        C538   1.444       .  S
C537        N541   1.157       .  T
C538        N542   1.157       .  T
C539        N544   1.157       .  T
C540        N543   1.157       .  T
C549        C550   1.410       .  A
C549        C554   1.401       .  A
C549        C563   1.445       .  S
C550        C555   1.486       .  S
C550        C551   1.403       .  A
C551        C552   1.403       .  A
C551        H570   1.085       .  S
C552        C553   1.413       .  A
C552        C564   1.443       .  S
C553        C554   1.407       .  A
C554        H569   1.085       .  S
C555        C560   1.409       .  A
C555       C1248   1.403   1_545  A
C556        C557   1.403       .  A
C556       C1247   1.403       .  A
C556        H571   1.085       .  S
C557        C558   1.414       .  A
C557        C561   1.443       .  S
C558       C1251   1.405       .  A
C559        C560   1.400       .  A
C559       C1250   1.405   1_545  A
C559        H572   1.085       .  S
C560        C562   1.443       .  S
C561        N565   1.157       .  T
C562        N566   1.157       .  T
C563        N568   1.157       .  T
C564        N567   1.157       .  T
C573        C574   1.411       .  A
C573        C578   1.397       .  A
C573        C587   1.444       .  S
C574        C579   1.484       .  S
C574        C575   1.403       .  A
C575        C576   1.400       .  A
C575        H594   1.085       .  S
C576        C577   1.412       .  A
C576       C1972   1.444       .  S
C577        C578   1.403       .  A
C578        H593   1.085       .  S
C579        C580   1.401       .  A
C579        C584   1.411       .  A
C580        C581   1.398       .  A
C580        H595   1.085       .  S
C581        C582   1.416       .  A
C581        C585   1.444       .  S
C582        C583   1.407       .  A
C583        C584   1.401       .  A
C583        H596   1.085       .  S
C584        C586   1.445       .  S
C585        N589   1.157       .  T
C586        N590   1.157       .  T
C587        N592   1.157       .  T
C588       C1960   1.444       .  S
C588        N591   1.157       .  T
C597        C598   1.415       .  A
C597        C602   1.400       .  A
C597        C611   1.443       .  S
C598        C603   1.494       .  S
C598        C599   1.405       .  A
C599        C600   1.400       .  A
C599        H618   1.093       .  S
C600        C601   1.411       .  A
C600        C612   1.444       .  S
C601       C1532   1.488       .  S
C601        C602   1.402       .  A
C602       H2001   1.092       .  S
C603        C604   1.403       .  A
C603        C608   1.414       .  A
C604        C605   1.402       .  A
C604        H619   1.088       .  S
C605        C606   1.419       .  A
C605        C609   1.445       .  S
C606        C607   1.405       .  A
C607        C608   1.401       .  A
C607        H620   1.087       .  S
C608       C1994   1.444       .  S
C609        N613   1.158       .  T
C610       C1992   1.444   1_455  S
C610        N614   1.157       .  T
C611        N616   1.157       .  T
C612        N615   1.157       .  T
H617       C1986   1.092       .  S
C621        C622   1.409       .  A
C621        C626   1.399       .  A
C621        C635   1.445       .  S
C622        C627   1.485       .  S
C622        C623   1.404       .  A
C623        C624   1.404       .  A
C623        H642   1.085       .  S
C624        C625   1.412       .  A
C624        C636   1.443       .  S
C625        C626   1.408       .  A
C626        H641   1.084       .  S
C627        C628   1.403       .  A
C627        C632   1.410       .  A
C628        C629   1.402       .  A
C628        H643   1.085       .  S
C629        C630   1.413       .  A
C629        C633   1.443       .  S
C630        C631   1.405       .  A
C631        C632   1.400       .  A
C631        H644   1.085       .  S
C632        C634   1.444       .  S
C633       N1329   1.157       .  T
C634        N638   1.157       .  T
C635        N640   1.157       .  T
C636        N639   1.157       .  T
N637       C1325   1.157       .  T
C645        C646   1.412       .  A
C645        C650   1.404       .  A
C645        C659   1.444       .  S
C646        C651   1.488       .  S
C646        C647   1.403       .  A
C647        C648   1.399       .  A
C647        H666   1.084       .  S
C648        C649   1.413       .  A
C648        C660   1.444       .  S
C649        C650   1.405       .  A
C650        H665   1.084       .  S
C651        C652   1.406       .  A
C651        C656   1.410       .  A
C652        C653   1.405       .  A
C652        H667   1.084       .  S
C653        C654   1.413       .  A
C653        C657   1.444       .  S
C654        C655   1.406       .  A
C655        C656   1.396       .  A
C655        H668   1.085       .  S
C656        C658   1.445       .  S
C657        N661   1.157       .  T
C658        N662   1.157       .  T
C659        N664   1.157       .  T
C660        N663   1.157       .  T
C669        C674   1.402   1_655  A
C669       C2054   1.411       .  A
C669        C683   1.443       .  S
C670        C675   1.489       .  S
C670        C671   1.404       .  A
C670       C2053   1.411       .  A
C671        C672   1.403       .  A
C671        H690   1.085       .  S
C672       C2057   1.413       .  A
C672        C684   1.443       .  S
C673        C674   1.404       .  A
C673       C2056   1.413   1_455  A
C674        H689   1.085       .  S
C675        C676   1.403       .  A
C675        C680   1.409       .  A
C676        C677   1.403       .  A
C676       H2075   1.085       .  S
C677        C678   1.417       .  A
C677        C681   1.445       .  S
C678        C679   1.407       .  A
C679        C680   1.402       .  A
C679        H692   1.084       .  S
C680        C682   1.443       .  S
C681       N2069   1.158       .  T
C682        N686   1.157       .  T
C683        N688   1.157       .  T
C684        N687   1.157       .  T
N685       C2065   1.158       .  T
H691       C2060   1.085   1_455  S
C693        N694   1.362       .  A
C693        N698   1.360       .  A
C693       C1370   1.489       .  S
N694        C695   1.360       .  A
C695        N696   1.356       .  A
C695        C794   1.469       .  S
N696        C697   1.356       .  A
C697        N698   1.358       .  A
C697        C737   1.466       .  S
C699        N700   1.359       .  A
C699        N704   1.360       .  A
C699       C1346   1.484       .  S
N700        C701   1.354       .  A
C701        N702   1.356       .  A
C701        C725   1.461       .  S
N702        C703   1.357       .  A
C703        N704   1.359       .  A
C703        C806   1.463       .  S
C705        N706   1.359       .  A
C705        N710   1.363       .  A
C705       C1317   1.485       .  S
N706        C707   1.355       .  A
C707        N708   1.355       .  A
C707        C795   1.460       .  S
N708        C709   1.356       .  A
C709        N710   1.361       .  A
C709        C760   1.464       .  S
C711        N712   1.357       .  A
C711        N716   1.362       .  A
C711       C1298   1.490       .  S
N712        C713   1.356       .  A
C713        N714   1.354       .  A
C713        C829   1.458       .  S
N714        C715   1.355       .  A
C715        N716   1.361       .  A
C715        C726   1.464       .  S
N717        N718   1.321       .  A
N717       N2107   1.315       .  A
N717       Mn746   2.203   1_655  S
N718       C2109   1.353       .  A
N719       N2105   1.317       .  A
N719        N720   1.321       .  A
N720        C726   1.354       .  A
N721       N2103   1.317       .  A
N721        N722   1.320       .  A
N722       C2110   1.350       .  A
N723       N2101   1.315       .  A
N723        N724   1.318       .  A
N723       Mn735   2.192       .  S
N724        C725   1.350       .  A
C725       N2102   1.353       .  A
C726       N2106   1.350       .  A
N727       N2117   1.316       .  A
N727        N728   1.324       .  A
N728       C2120   1.354       .  A
N729        N730   1.321       .  A
N729       N2115   1.316       .  A
N729       Mn735   2.211       .  S
N730        C737   1.353       .  A
N731       N2113   1.316       .  A
N731        N732   1.320       .  A
N731       Mn757   2.196   1_655  S
N732       C2121   1.352       .  A
N733       N2111   1.316       .  A
N733        N734   1.319       .  A
N734        C736   1.350       .  A
Mn735     Cl2143   2.524       .  S
C736       N2112   1.354       .  A
C736        C770   1.467       .  S
C737       N2116   1.352       .  A
N738        N739   1.323       .  A
N738        N744   1.315       .  A
N739        C747   1.355       .  A
N740        N742   1.315       .  A
N740        N741   1.321       .  A
N740       Mn758   2.208       .  S
N741        C748   1.353       .  A
N742        N743   1.319       .  A
N742       Mn746   2.189       .  S
N743        C748   1.351       .  A
N744        N745   1.318       .  A
N745        C747   1.350       .  A
Mn746      Cl759   2.569       .  S
C747        C782   1.465       .  S
C748        C766   1.464       .  S
N749        N750   1.324       .  A
N749        N755   1.316       .  A
N749       Mn757   2.208       .  S
N750        C760   1.354       .  A
N751        N752   1.318       .  A
N751        N753   1.317       .  A
N752        C761   1.350       .  A
N753        N754   1.319       .  A
N754        C761   1.351       .  A
N755        N756   1.318       .  A
N755       Mn758   2.194       .  S
N756        C760   1.349       .  A
Mn757      Cl759   2.570       .  S
Mn758      Cl759   2.521       .  S
Cl759     Mn2119   2.524   1_455  S
C761        C778   1.458       .  S
C762        N763   1.358       .  A
C762        N767   1.359       .  A
C762       C1274   1.484       .  S
N763        C764   1.356       .  A
C764        N765   1.357       .  A
C764        C805   1.464       .  S
N765        C766   1.357       .  A
C766        N767   1.359       .  A
C768        N769   1.362       .  A
C768        N773   1.361       .  A
C768       C1245   1.486       .  S
N769        C770   1.359       .  A
C770        N771   1.356       .  A
N771        C772   1.356       .  A
C772        N773   1.358       .  A
C772        C817   1.463       .  S
C774        N775   1.358       .  A
C774        N779   1.357       .  A
C774       C1226   1.478       .  S
N775        C776   1.356       .  A
C776        N777   1.355       .  A
C776        C816   1.460       .  S
N777        C778   1.355       .  A
C778        N779   1.355       .  A
C780        N781   1.360       .  A
C780        N785   1.362       .  A
C780       C1197   1.485       .  S
N781        C782   1.355       .  A
C782        N783   1.355       .  A
N783        C784   1.357       .  A
C784        N785   1.360       .  A
C784        C830   1.465       .  S
N786        N787   1.321       .  A
N786        N792   1.317       .  A
N786       Mn815   2.199       .  S
N787        C794   1.352       .  A
N788        N790   1.315       .  A
N788        N789   1.318       .  A
N788       Mn804   2.188       .  S
N789        C795   1.349       .  A
N790        N791   1.322       .  A
N790       Mn815   2.208       .  S
N791        C795   1.353       .  A
N792        N793   1.321       .  A
N792       Mn804   2.215       .  S
N793        C794   1.354       .  A
N796        N802   1.317       .  A
N796        N797   1.319       .  A
N796       Mn826   2.194       .  S
N797        C805   1.352       .  A
N798        N799   1.318       .  A
N798        N800   1.315       .  A
N798       Mn804   2.191       .  S
N799        C806   1.350       .  A
N800        N801   1.323       .  A
N800       Mn826   2.205       .  S
N801        C806   1.353       .  A
N802        N803   1.321       .  A
N802       Mn804   2.211       .  S
N803        C805   1.352       .  A
Mn804      Cl828   2.522       .  S
N807        N808   1.320       .  A
N807        N813   1.317       .  A
N807       Mn815   2.196       .  S
N808        C816   1.352       .  A
N809        N811   1.315       .  A
N809        N810   1.318       .  A
N809       Mn827   2.192       .  S
N810        C817   1.348       .  A
N811        N812   1.323       .  A
N811       Mn815   2.207       .  S
N812        C817   1.354       .  A
N813        N814   1.319       .  A
N813       Mn827   2.201       .  S
N814        C816   1.351       .  A
Mn815      Cl828   2.570       .  S
N818        N819   1.317       .  A
N818        N824   1.316       .  A
N818       Mn826   2.185       .  S
N819        C829   1.349       .  A
N820        N821   1.318       .  A
N820        N822   1.315       .  A
N820       Mn827   2.194       .  S
N821        C830   1.349       .  A
N822        N823   1.324       .  A
N822       Mn826   2.207       .  S
N823        C830   1.354       .  A
N824        N825   1.320       .  A
N824       Mn827   2.205       .  S
N825        C829   1.353       .  A
Mn826      Cl828   2.568       .  S
Mn827      Cl828   2.519       .  S
C831       C1322   1.490       .  S
C831        C832   1.420       .  A
C831        C836   1.405       .  A
C832       C1250   1.492       .  S
C832        C833   1.408       .  A
C833        C834   1.404       .  A
C834       C1149   1.489       .  S
C834        C835   1.414       .  A
C835       C1178   1.486       .  S
C835        C836   1.400       .  A
C836        H837   1.085       .  S
C839       C1269   1.484       .  S
C839        C840   1.413       .  A
C839        C844   1.403       .  A
C840       C2677   1.488   1_455  S
C840       C2225   1.397       .  A
C841       C2224   1.397       .  A
C841       C2226   1.403   1_554  A
C841        H846   1.085       .  S
C842       C2509   1.484       .  S
C842       C2225   1.403   1_556  A
C842        C843   1.420       .  A
C843       C1101   1.496       .  S
C843        C844   1.406   1_556  A
C844        H845   1.084       .  S
C847       C1221   1.482       .  S
C847        C848   1.417       .  A
C847        C852   1.402       .  A
C848       C1365   1.491       .  S
C848        C849   1.402       .  A
C849        C850   1.404       .  A
C849       H2238   1.085   1_455  S
C850       C1082   1.480       .  S
C850        C851   1.413       .  A
C851       C1058   1.488       .  S
C851        C852   1.400       .  A
C852        H853   1.085       .  S
H854       C2233   1.085       .  S
C855        C856   1.418       .  A
C855        C860   1.409       .  A
C856       C1341   1.489       .  S
C856        C857   1.405       .  A
C857        C858   1.401   1_554  A
C857        H862   1.084       .  S
C858       C1034   1.480       .  S
C858        C859   1.412   1_556  A
C859       C1010   1.492   1_554  S
C859        C860   1.404       .  A
C863        N864   1.359       .  A
C863        N868   1.359       .  A
C863       C1029   1.475       .  S
N864        C865   1.358       .  A
C865        N866   1.355       .  A
C865        C919   1.463       .  S
N866        C867   1.356       .  A
C867        N868   1.358       .  A
C867        C964   1.462       .  S
C869        N870   1.360       .  A
C869        N874   1.359       .  A
C869       C1130   1.479       .  S
N870        C871   1.358       .  A
C871        N872   1.357       .  A
C871        C987   1.462       .  S
N872        C873   1.355       .  A
C873        N874   1.355       .  A
C873        C918   1.461       .  S
C875        N876   1.359       .  A
C875        N880   1.364       .  A
C875       C1005   1.491       .  S
N876        C877   1.358       .  A
C877        N878   1.357       .  A
C877        C986   1.467       .  S
N878        C879   1.358       .  A
C879        N880   1.362       .  A
C879        C943   1.474       .  S
C881        N882   1.363       .  A
C881        N886   1.358       .  A
C881       C1106   1.490       .  S
N882        C883   1.360       .  A
C883        N884   1.356       .  A
C883        C965   1.466       .  S
N884        C885   1.356       .  A
C885        N886   1.355       .  A
C885        C942   1.458       .  S
C887        N888   1.363       .  A
C887        N892   1.360       .  A
C887       C1053   1.486       .  S
N888        C889   1.360       .  A
C889        N890   1.356       .  A
C889        C929   1.466       .  S
N890        C891   1.356       .  A
C891        N892   1.357       .  A
C891       C1000   1.461       .  S
C893        N894   1.358       .  A
C893        N898   1.358       .  A
C893       C1154   1.481       .  S
N894        C895   1.357       .  A
C895        N896   1.356       .  A
C895        C908   1.463       .  S
N896        C897   1.356       .  A
C897        N898   1.359       .  A
C897        C999   1.463       .  S
N899        N900   1.324       .  A
N899        N905   1.315       .  A
N899       Mn928   2.212       .  S
N900        C907   1.355       .  A
N901        N903   1.317       .  A
N901        N902   1.320       .  A
N901       Mn917   2.209       .  S
N902        C908   1.353       .  A
N903        N904   1.319       .  A
N903       Mn928   2.194       .  S
N904        C908   1.351       .  A
N905        N906   1.317       .  A
N905       Mn917   2.189       .  S
N906        C907   1.349       .  A
C907        C946   1.464       .  S
N909        N915   1.315       .  A
N909        N910   1.321       .  A
N909       Mn939   2.201       .  S
N910        C918   1.353       .  A
N911        N912   1.321       .  A
N911        N913   1.316       .  A
N911       Mn917   2.211       .  S
N912        C919   1.354       .  A
N913        N914   1.319       .  A
N913       Mn939   2.190       .  S
N914        C919   1.350       .  A
N915        N916   1.319       .  A
N915       Mn917   2.194       .  S
N916        C918   1.350       .  A
Mn917      Cl941   2.523       .  S
N920        N921   1.324       .  A
N920        N926   1.317       .  A
N920       Mn928   2.218       .  S
N921        C929   1.355       .  A
N922        N924   1.316       .  A
N922        N923   1.321       .  A
N922       Mn940   2.213       .  S
N923        C930   1.353       .  A
N924        N925   1.319       .  A
N924       Mn928   2.187       .  S
N925        C930   1.350       .  A
N926        N927   1.318       .  A
N926       Mn940   2.190       .  S
N927        C929   1.348       .  A
Mn928      Cl941   2.569       .  S
C930        C952   1.462       .  S
N931        N932   1.321       .  A
N931        N937   1.314       .  A
N931       Mn939   2.197       .  S
N932        C942   1.353       .  A
N933        N934   1.321       .  A
N933        N935   1.317       .  A
N933       Mn940   2.222       .  S
N934        C943   1.354       .  A
N935        N936   1.323       .  A
N935       Mn939   2.203       .  S
N936        C943   1.353       .  A
N937        N938   1.318       .  A
N937       Mn940   2.187       .  S
N938        C942   1.349       .  A
Mn939      Cl941   2.569       .  S
Mn940      Cl941   2.520       .  S
C944        N945   1.360       .  A
C944        N949   1.359       .  A
C944       C1077   1.474       .  S
N945        C946   1.359       .  A
C946        N947   1.357       .  A
N947        C948   1.356       .  A
C948        N949   1.356       .  A
C948        C976   1.464       .  S
C950        N951   1.358       .  A
C950        N955   1.359       .  A
C950       C1173   1.481       .  S
N951        C952   1.358       .  A
C952        N953   1.355       .  A
N953        C954   1.356       .  A
C954        N955   1.358       .  A
C954        C975   1.461       .  S
N956        N957   1.320       .  A
N956        N962   1.317       .  A
N956      Mn2369   2.193       .  S
N957        C964   1.351       .  A
N958        N960   1.316       .  A
N958        N959   1.319       .  A
N958       Mn974   2.199       .  S
N959        C965   1.351       .  A
N960        N961   1.323       .  A
N960       Mn985   2.208       .  S
N961        C965   1.353       .  A
N962        N963   1.319       .  A
N962      Mn2358   2.208       .  S
N963        C964   1.352       .  A
N966        N972   1.317       .  A
N966        N967   1.319       .  A
N966       Mn996   2.193       .  S
N967        C975   1.351       .  A
N968        N969   1.319       .  A
N968        N970   1.315       .  A
N968      Mn2358   2.196       .  S
N969        C976   1.350       .  A
N970        N971   1.323       .  A
N970      Mn2380   2.208       .  S
N971        C976   1.354       .  A
N972        N973   1.320       .  A
N972       Mn974   2.209       .  S
N973        C975   1.352       .  A
Mn974      N2346   2.208   1_455  S
Mn974      N2352   2.196   1_455  S
Mn974      Cl998   2.522       .  S
N977        N978   1.320       .  A
N977        N983   1.317       .  A
N978        C986   1.352       .  A
N979        N981   1.315       .  A
N979        N980   1.317       .  A
N979      Mn2381   2.185       .  S
N980        C987   1.348       .  A
N981        N982   1.323       .  A
N981      Mn1677   2.208       .  S
N982        C987   1.354       .  A
N983        N984   1.321       .  A
N983       Mn997   2.215       .  S
N984        C986   1.354       .  A
Mn985      N2340   2.193   1_455  S
Mn985      N1673   2.208   1_465  S
Mn985      Cl998   2.571       .  S
N988        N989   1.319       .  A
N988        N994   1.317       .  A
N988      Mn1688   2.189       .  S
N989        C999   1.350       .  A
N990        N991   1.316       .  A
N990        N992   1.315       .  A
N990       Mn997   2.181       .  S
N991       C1000   1.347       .  A
N992        N993   1.324       .  A
N993       C1000   1.355       .  A
N994        N995   1.321       .  A
N994      Mn2381   2.215       .  S
N995        C999   1.354       .  A
Mn996      N2354   2.208   1_455  S
Mn996      N1680   2.189   1_465  S
Mn996      Cl998   2.570       .  S
Mn997      N2363   2.185   1_455  S
Mn997      N2378   2.215   1_455  S
C1001      C1002   1.412       .  A
C1001      C1006   1.402       .  A
C1001      C1015   1.444       .  S
C1002      C1007   1.493       .  S
C1002      C1003   1.403       .  A
C1003      C1004   1.404       .  A
C1004      C1005   1.418       .  A
C1004      C1016   1.445       .  S
C1005      C1006   1.406       .  A
C1006      H1021   1.084       .  S
C1007      C1008   1.406       .  A
C1007      C1012   1.412       .  A
C1008      C1009   1.405       .  A
C1008      H1023   1.085       .  S
C1009      C1013   1.443       .  S
C1011      C1012   1.400       .  A
C1012      C1014   1.444       .  S
C1013      N1017   1.157       .  T
C1014      N1018   1.157       .  T
C1015      N1020   1.157       .  T
C1025      C1026   1.414       .  A
C1025      C1030   1.400       .  A
C1025      C1039   1.445       .  S
C1026      C1031   1.491       .  S
C1026      C1027   1.406       .  A
C1027      C1028   1.401       .  A
C1027      H1046   1.085       .  S
C1028      C1029   1.409       .  A
C1028      C1040   1.444       .  S
C1029      C1030   1.402       .  A
C1030      H1045   1.085       .  S
C1031      C1032   1.406       .  A
C1031      C1036   1.414       .  A
C1032      C1033   1.398       .  A
C1032      H1047   1.084       .  S
C1033      C1034   1.408       .  A
C1033      C1037   1.444       .  S
C1034      C1035   1.402       .  A
C1035      C1036   1.401       .  A
C1035      H1048   1.085       .  S
C1036      C1038   1.444       .  S
C1037      N1041   1.157   1_565  T
C1038      N1042   1.157       .  T
C1039      N1044   1.157       .  T
C1040      N1043   1.157       .  T
C1049      C1050   1.410       .  A
C1049      C1054   1.402       .  A
C1049      C1063   1.443       .  S
C1050      C1055   1.486       .  S
C1050      C1051   1.401       .  A
C1051      C1052   1.402       .  A
C1051      H1070   1.085       .  S
C1052      C1053   1.418       .  A
C1052      C1064   1.445       .  S
C1053      C1054   1.404       .  A
C1054      H1069   1.085       .  S
C1055      C1056   1.402       .  A
C1055      C1060   1.412       .  A
C1056      C1057   1.401       .  A
C1056      H1071   1.085       .  S
C1057      C1058   1.413       .  A
C1057      C1061   1.444       .  S
C1058      C1059   1.404       .  A
C1059      C1060   1.403       .  A
C1059      H1072   1.085       .  S
C1060      C1062   1.444       .  S
C1061      N1065   1.157       .  T
C1062      N1066   1.157       .  T
C1063      N1068   1.157       .  T
C1064      N1067   1.158       .  T
C1073      C1074   1.411       .  A
C1073      C1078   1.404       .  A
C1073      C1087   1.443       .  S
C1074      C1079   1.479       .  S
C1074      C1075   1.399       .  A
C1075      C1076   1.398       .  A
C1075      H2478   1.085       .  S
C1076      C1077   1.413       .  A
C1076      C1088   1.445       .  S
C1077      C1078   1.402       .  A
C1078      H1093   1.084       .  S
C1079      C1080   1.401       .  A
C1079      C1084   1.410       .  A
C1080      C1081   1.399       .  A
C1080      H1095   1.085       .  S
C1081      C2466   1.410       .  A
C1081      C1085   1.444       .  S
C1082      C2465   1.410       .  A
C1082      C1083   1.403   1_455  A
C1083      C2468   1.401       .  A
C1083      H1096   1.085       .  S
C1084      C2467   1.401       .  A
C1084      C2470   1.444       .  S
C1085      N1089   1.157       .  T
C1086      C2468   1.444       .  S
C1086      N1090   1.157       .  T
C1087      N1092   1.157       .  T
C1088      N2475   1.157       .  T
N1091      C2472   1.157   1_455  T
H1094      C2459   1.085   1_455  S
C1097      C1098   1.412       .  A
C1097      C1102   1.403       .  A
C1097      C1111   1.444       .  S
C1098      C1103   1.490       .  S
C1098      C1099   1.402       .  A
C1099      C1100   1.401       .  A
C1099      H1118   1.085       .  S
C1100      C1101   1.417       .  A
C1100      C1112   1.444       .  S
C1101      C1102   1.406       .  A
C1102      H1117   1.085       .  S
C1103      C1104   1.404       .  A
C1103      C1108   1.411       .  A
C1104      C1105   1.402       .  A
C1104      H1119   1.085       .  S
C1105      C1106   1.413       .  A
C1105      C1109   1.443       .  S
C1106      C1107   1.410       .  A
C1107      C1108   1.401       .  A
C1107      H1120   1.084       .  S
C1108      C1110   1.445       .  S
C1109      N1113   1.157       .  T
C1110      N1114   1.158       .  T
C1111      N1116   1.157       .  T
C1112      N1115   1.157   1_556  T
C1121      C2506   1.411   1_455  A
C1121      C1126   1.402       .  A
C1121      C1135   1.443       .  S
C1122      C1127   1.482       .  S
C1122      C2505   1.411       .  A
C1122      C1123   1.401       .  A
C1123      C1124   1.396       .  A
C1123      H1142   1.085       .  S
C1124      C1125   1.413       .  A
C1124      C1136   1.445       .  S
C1125      C2226   1.484       .  S
C1125      C2510   1.403       .  A
C1126      C2509   1.403       .  A
C1126      H1141   1.085       .  S
C1127      C1128   1.404       .  A
C1127      C1132   1.409       .  A
C1128      C1129   1.404       .  A
C1128      H1143   1.085       .  S
C1129      C1130   1.411       .  A
C1129      C1133   1.443       .  S
C1130      C1131   1.405       .  A
C1131      C1132   1.396       .  A
C1131      H1144   1.085       .  S
C1132      C1134   1.445       .  S
C1133      N1137   1.157       .  T
C1134      N1138   1.157       .  T
C1135      N1140   1.157       .  T
C1136      N1139   1.157       .  T
C1145      C1146   1.410       .  A
C1145      C1150   1.402       .  A
C1145      C1159   1.443       .  S
C1146      C1151   1.483       .  S
C1146      C1147   1.401       .  A
C1147      H1166   1.085       .  S
C1148      C1149   1.414   1_545  A
C1148      C1160   1.443       .  S
C1150      H1165   1.085       .  S
C1151      C1152   1.401       .  A
C1151      C1156   1.411       .  A
C1152      C1153   1.399       .  A
C1152      H1167   1.085       .  S
C1153      C1154   1.414       .  A
C1153      C1157   1.444       .  S
C1154      C1155   1.406       .  A
C1155      C1156   1.402       .  A
C1155      H1168   1.084       .  S
C1157      N1161   1.157       .  T
C1158      N1162   1.157       .  T
C1159      N1164   1.157       .  T
C1160      N1163   1.157       .  T
C1169      C1170   1.411       .  A
C1169      C1174   1.400       .  A
C1169      C1183   1.444       .  S
C1170      C1175   1.484       .  S
C1170      C1171   1.402       .  A
C1171      C1172   1.400       .  A
C1171      H1190   1.085       .  S
C1172      C1173   1.414       .  A
C1172      C1184   1.444       .  S
C1173      C1174   1.405       .  A
C1174      H1189   1.085       .  S
C1175      C1176   1.403       .  A
C1175      C1180   1.412       .  A
C1176      C1177   1.399       .  A
C1176      H1191   1.085       .  S
C1177      C1178   1.411       .  A
C1177      C1181   1.444       .  S
C1178      C1179   1.403       .  A
C1179      C1180   1.400       .  A
C1179      H1192   1.085       .  S
C1180      C1182   1.444       .  S
C1181      N1185   1.157       .  T
C1182      N1186   1.157       .  T
C1183      N1188   1.157       .  T
C1184      N1187   1.157       .  T
C1193      C1194   1.414       .  A
C1193      C1198   1.405       .  A
C1193      C1207   1.444       .  S
C1194      C1199   1.490       .  S
C1194      C1195   1.401       .  A
C1195      C1196   1.399       .  A
C1195      H1214   1.085       .  S
C1196      C1197   1.417       .  A
C1196      C1208   1.445       .  S
C1197      C1198   1.405       .  A
C1198      H1213   1.085       .  S
C1199      C1200   1.403       .  A
C1200      C1201   1.402       .  A
C1200      H1215   1.085       .  S
C1201      C1202   1.413       .  A
C1201      C1205   1.442       .  S
C1203      C1204   1.401   1_565  A
C1203      H1216   1.085       .  S
C1204      C1206   1.444   1_545  S
C1205      N1209   1.157       .  T
C1206      N1210   1.157       .  T
C1207      N1212   1.157       .  T
C1208      N1211   1.157       .  T
C1217      C1218   1.408       .  A
C1217      C1222   1.397       .  A
C1217      C1231   1.444       .  S
C1218      C1223   1.476       .  S
C1218      C1219   1.402       .  A
C1219      C1220   1.398       .  A
C1219      H1238   1.085       .  S
C1220      C1221   1.411       .  A
C1220      C1232   1.443       .  S
C1221      C1222   1.405       .  A
C1222      H1237   1.085       .  S
C1223      C1224   1.401       .  A
C1223      C1228   1.407       .  A
C1224      C1225   1.397       .  A
C1224      H1239   1.085       .  S
C1225      C1226   1.415       .  A
C1225      C1229   1.445       .  S
C1226      C1227   1.406       .  A
C1227      C1228   1.398       .  A
C1227      H1240   1.084       .  S
C1228      C1230   1.444       .  S
C1229      N1233   1.157       .  T
C1230      N1234   1.157       .  T
C1231      N1236   1.157       .  T
C1232      N1235   1.157       .  T
C1241      C1242   1.410       .  A
C1241      C1246   1.401       .  A
C1241      C1255   1.445       .  S
C1242      C1247   1.486       .  S
C1242      C1243   1.403       .  A
C1243      C1244   1.403       .  A
C1243      H1262   1.085       .  S
C1244      C1245   1.413       .  A
C1244      C1256   1.443       .  S
C1245      C1246   1.407       .  A
C1246      H1261   1.085       .  S
C1247      C1252   1.409       .  A
C1248      C1249   1.403       .  A
C1248      H1263   1.085       .  S
C1249      C1250   1.414       .  A
C1249      C1253   1.443       .  S
C1251      C1252   1.400       .  A
C1251      H1264   1.085       .  S
C1252      C1254   1.443       .  S
C1253      N1257   1.157       .  T
C1254      N1258   1.157       .  T
C1255      N1260   1.157       .  T
C1256      N1259   1.157       .  T
C1265      C1266   1.411       .  A
C1265      C1270   1.397       .  A
C1265      C1279   1.444       .  S
C1266      C1271   1.484       .  S
C1266      C1267   1.403       .  A
C1267      C1268   1.400       .  A
C1267      H1286   1.085       .  S
C1268      C1269   1.412       .  A
C1268      C2664   1.444       .  S
C1269      C1270   1.403       .  A
C1270      H1285   1.085       .  S
C1271      C1272   1.401       .  A
C1271      C1276   1.411       .  A
C1272      C1273   1.398       .  A
C1272      H1287   1.085       .  S
C1273      C1274   1.416       .  A
C1273      C1277   1.444       .  S
C1274      C1275   1.407       .  A
C1275      C1276   1.401       .  A
C1275      H1288   1.085       .  S
C1276      C1278   1.445       .  S
C1277      N1281   1.157       .  T
C1278      N1282   1.157       .  T
C1279      N1284   1.157       .  T
C1280      C2652   1.444       .  S
C1280      N1283   1.157       .  T
C1289      C1290   1.416       .  A
C1289      C1294   1.400       .  A
C1289      C1303   1.443       .  S
C1290      C1295   1.494       .  S
C1290      C1291   1.405       .  A
C1291      C1292   1.400       .  A
C1291      H1310   1.093       .  S
C1292      C1293   1.411       .  A
C1292      C1304   1.444       .  S
C1293      C2224   1.488       .  S
C1293      C1294   1.402       .  A
C1294      H2693   1.092       .  S
C1295      C1296   1.403       .  A
C1295      C1300   1.414       .  A
C1296      C1297   1.402       .  A
C1296      H1311   1.088       .  S
C1297      C1298   1.419       .  A
C1297      C1301   1.445       .  S
C1298      C1299   1.405       .  A
C1299      C1300   1.401       .  A
C1299      H1312   1.087       .  S
C1300      C2686   1.444       .  S
C1301      N1305   1.158       .  T
C1302      C2684   1.444   1_455  S
C1302      N1306   1.157       .  T
C1303      N1308   1.157       .  T
C1304      N1307   1.157       .  T
H1309      C2678   1.092       .  S
C1313      C1314   1.409       .  A
C1313      C1318   1.399       .  A
C1313      C1327   1.445       .  S
C1314      C1319   1.485       .  S
C1314      C1315   1.404       .  A
C1315      C1316   1.404       .  A
C1315      H1334   1.085       .  S
C1316      C1317   1.412       .  A
C1316      C1328   1.443       .  S
C1317      C1318   1.408       .  A
C1318      H1333   1.084       .  S
C1319      C1320   1.403       .  A
C1319      C1324   1.410       .  A
C1320      C1321   1.402       .  A
C1320      H1335   1.085       .  S
C1321      C1322   1.413       .  A
C1321      C1325   1.443   1_565  S
C1322      C1323   1.405       .  A
C1323      C1324   1.400       .  A
C1323      H1336   1.085       .  S
C1324      C1326   1.444       .  S
C1326      N1330   1.157       .  T
C1327      N1332   1.157       .  T
C1328      N1331   1.157       .  T
C1337      C1338   1.412       .  A
C1337      C1342   1.404       .  A
C1337      C1351   1.444       .  S
C1338      C1343   1.488       .  S
C1338      C1339   1.403       .  A
C1339      C1340   1.399       .  A
C1339      H1358   1.084       .  S
C1340      C1341   1.413       .  A
C1340      C1352   1.444       .  S
C1341      C1342   1.405       .  A
C1342      H1357   1.084       .  S
C1343      C1344   1.406       .  A
C1343      C1348   1.410       .  A
C1344      C1345   1.405       .  A
C1344      H1359   1.084       .  S
C1345      C1346   1.413       .  A
C1345      C1349   1.444       .  S
C1346      C1347   1.406       .  A
C1347      C1348   1.396       .  A
C1347      H1360   1.085       .  S
C1348      C1350   1.445       .  S
C1349      N1353   1.157       .  T
C1350      N1354   1.157       .  T
C1351      N1356   1.157       .  T
C1352      N1355   1.157       .  T
C1361      C2746   1.411       .  A
C1361      C1366   1.402   1_655  A
C1361      C1375   1.443       .  S
C1362      C1367   1.489       .  S
C1362      C2745   1.411       .  A
C1362      C1363   1.404       .  A
C1363      C1364   1.403       .  A
C1363      H1382   1.085       .  S
C1364      C2749   1.413       .  A
C1364      C1376   1.443       .  S
C1365      C2748   1.413   1_455  A
C1365      C1366   1.404       .  A
C1366      H1381   1.085       .  S
C1367      C1368   1.403       .  A
C1367      C1372   1.409       .  A
C1368      C1369   1.403       .  A
C1368      H2767   1.085       .  S
C1369      C1370   1.417       .  A
C1369      C1373   1.445       .  S
C1370      C1371   1.407       .  A
C1371      C1372   1.402       .  A
C1371      H1384   1.084       .  S
C1372      C1374   1.443       .  S
C1373      N2761   1.158       .  T
C1374      N1378   1.157       .  T
C1375      N1380   1.157       .  T
C1376      N1379   1.157       .  T
N1377      C2757   1.158       .  T
H1383      C2752   1.085   1_455  S
C1385      N1386   1.362       .  A
C1385      N1390   1.360       .  A
C1385      C2062   1.489       .  S
N1386      C1387   1.360       .  A
C1387      N1388   1.356       .  A
C1387      C1486   1.469       .  S
N1388      C1389   1.356       .  A
C1389      N1390   1.358       .  A
C1389      C1429   1.466       .  S
C1391      N1392   1.359       .  A
C1391      N1396   1.360       .  A
C1391      C2038   1.484       .  S
N1392      C1393   1.354       .  A
C1393      N1394   1.356       .  A
C1393      C1417   1.461       .  S
N1394      C1395   1.357       .  A
C1395      N1396   1.359       .  A
C1395      C1498   1.463       .  S
C1397      N1398   1.359       .  A
C1397      N1402   1.363       .  A
C1397      C2009   1.485       .  S
N1398      C1399   1.355       .  A
C1399      N1400   1.355       .  A
C1399      C1487   1.460       .  S
N1400      C1401   1.356       .  A
C1401      N1402   1.361       .  A
C1401      C1452   1.464       .  S
C1403      N1404   1.357       .  A
C1403      N1408   1.362       .  A
C1403      C1990   1.490       .  S
N1404      C1405   1.356       .  A
C1405      N1406   1.354       .  A
C1405      C1521   1.458       .  S
N1406      C1407   1.355       .  A
C1407      N1408   1.361       .  A
C1407      C1418   1.464       .  S
N1409      N1410   1.321       .  A
N1409     Mn1438   2.203       .  S
N1411      N1412   1.321       .  A
N1411     Mn2119   2.215   1_545  S
N1412      C1418   1.354       .  A
N1413      N1414   1.320       .  A
N1413     Mn2130   2.190   1_545  S
N1415      N1416   1.318       .  A
N1415     Mn1427   2.192       .  S
N1416      C1417   1.350       .  A
N1419      N1420   1.324       .  A
N1419     Mn2141   2.214   1_545  S
N1421      N1422   1.321       .  A
N1421     Mn1427   2.211       .  S
N1422      C1429   1.353       .  A
N1423      N1424   1.320       .  A
N1423     Mn1449   2.196       .  S
N1425      N1426   1.319       .  A
N1425     Mn2119   2.198   1_545  S
N1426      C1428   1.350       .  A
Mn1427     N2103   2.215       .  S
Mn1427     N2117   2.198       .  S
C1428      C1462   1.467       .  S
N1430      N1431   1.323       .  A
N1430      N1436   1.315       .  A
N1430     Mn2130   2.209   1_545  S
N1431      C1439   1.355       .  A
N1432      N1434   1.315       .  A
N1432      N1433   1.321       .  A
N1432     Mn1450   2.208       .  S
N1433      C1440   1.353       .  A
N1434      N1435   1.319       .  A
N1434     Mn1438   2.189       .  S
N1435      C1440   1.351       .  A
N1436      N1437   1.318       .  A
N1436     Mn2142   2.197   1_545  S
N1437      C1439   1.350       .  A
Mn1438     N2105   2.190       .  S
Mn1438     N2122   2.209       .  S
Mn1438    Cl1451   2.569       .  S
C1439      C1474   1.465       .  S
C1440      C1458   1.464       .  S
N1441      N1442   1.324       .  A
N1441      N1447   1.316       .  A
N1441     Mn1449   2.208       .  S
N1442      C1452   1.354       .  A
N1443      N1444   1.318       .  A
N1443      N1445   1.317       .  A
N1443     Mn2142   2.199   1_545  S
N1444      C1453   1.350       .  A
N1445      N1446   1.319       .  A
N1445     Mn2141   2.193   1_545  S
N1446      C1453   1.351       .  A
N1447      N1448   1.318       .  A
N1447     Mn1450   2.194       .  S
N1448      C1452   1.349       .  A
Mn1449     N2111   2.214       .  S
Mn1449     N2137   2.193       .  S
Mn1449    Cl1451   2.570       .  S
Mn1450     N2128   2.197       .  S
Mn1450     N2135   2.199       .  S
Mn1450    Cl1451   2.521       .  S
C1453      C1470   1.458       .  S
C1454      N1455   1.358       .  A
C1454      N1459   1.359       .  A
C1454      C1966   1.484       .  S
N1455      C1456   1.356       .  A
C1456      N1457   1.357       .  A
C1456      C1497   1.464       .  S
N1457      C1458   1.357       .  A
C1458      N1459   1.359       .  A
C1460      N1461   1.362       .  A
C1460      N1465   1.361       .  A
C1460      C1937   1.486       .  S
N1461      C1462   1.359       .  A
C1462      N1463   1.356       .  A
N1463      C1464   1.356       .  A
C1464      N1465   1.358       .  A
C1464      C1509   1.463       .  S
C1466      N1467   1.358       .  A
C1466      N1471   1.357       .  A
C1466      C1918   1.478       .  S
N1467      C1468   1.356       .  A
C1468      N1469   1.355       .  A
C1468      C1508   1.460       .  S
N1469      C1470   1.355       .  A
C1470      N1471   1.355       .  A
C1472      N1473   1.360       .  A
C1472      N1477   1.362       .  A
C1472      C1889   1.485       .  S
N1473      C1474   1.355       .  A
C1474      N1475   1.355       .  A
N1475      C1476   1.357       .  A
C1476      N1477   1.360       .  A
C1476      C1522   1.465       .  S
N1478      N1479   1.321       .  A
N1478      N1484   1.317       .  A
N1478     Mn1507   2.199       .  S
N1479      C1486   1.352       .  A
N1480      N1482   1.315       .  A
N1480      N1481   1.318       .  A
N1480     Mn1496   2.188       .  S
N1481      C1487   1.349       .  A
N1482      N1483   1.322       .  A
N1482     Mn1507   2.208       .  S
N1483      C1487   1.353       .  A
N1484      N1485   1.321       .  A
N1484     Mn1496   2.215       .  S
N1485      C1486   1.354       .  A
N1488      N1494   1.317       .  A
N1488      N1489   1.319       .  A
N1488     Mn1518   2.194       .  S
N1489      C1497   1.352       .  A
N1490      N1491   1.318       .  A
N1490      N1492   1.315       .  A
N1490     Mn1496   2.191       .  S
N1491      C1498   1.350       .  A
N1492      N1493   1.323       .  A
N1492     Mn1518   2.205       .  S
N1493      C1498   1.353       .  A
N1494      N1495   1.321       .  A
N1494     Mn1496   2.211       .  S
N1495      C1497   1.352       .  A
Mn1496    Cl1520   2.522       .  S
N1499      N1500   1.320       .  A
N1499      N1505   1.317       .  A
N1499     Mn1507   2.196       .  S
N1500      C1508   1.352       .  A
N1501      N1503   1.315       .  A
N1501      N1502   1.318       .  A
N1501     Mn1519   2.192       .  S
N1502      C1509   1.348       .  A
N1503      N1504   1.323       .  A
N1503     Mn1507   2.206       .  S
N1504      C1509   1.354       .  A
N1505      N1506   1.319       .  A
N1505     Mn1519   2.201       .  S
N1506      C1508   1.351       .  A
Mn1507    Cl1520   2.570       .  S
N1510      N1511   1.317       .  A
N1510      N1516   1.316       .  A
N1510     Mn1518   2.185       .  S
N1511      C1521   1.349       .  A
N1512      N1513   1.318       .  A
N1512      N1514   1.315       .  A
N1512     Mn1519   2.194       .  S
N1513      C1522   1.349       .  A
N1514      N1515   1.324       .  A
N1514     Mn1518   2.207       .  S
N1515      C1522   1.354       .  A
N1516      N1517   1.320       .  A
N1516     Mn1519   2.205       .  S
N1517      C1521   1.353       .  A
Mn1518    Cl1520   2.568       .  S
Mn1519    Cl1520   2.519       .  S
C1523      C2014   1.490       .  S
C1523      C1524   1.420       .  A
C1523      C1528   1.405       .  A
C1524      C1942   1.492       .  S
C1524      C1525   1.408       .  A
C1525      C1526   1.404       .  A
C1525      H2222   1.084       .  S
C1526      C1841   1.489       .  S
C1526      C1527   1.414       .  A
C1527      C1870   1.486       .  S
C1527      C1528   1.400       .  A
C1528      H1529   1.085       .  S
H1530      C2217   1.084   1_545  S
C1531      C1961   1.484       .  S
C1531      C1532   1.413       .  A
C1531      C1536   1.403       .  A
C1533      H1538   1.085   1_455  S
C1534      C1535   1.420       .  A
C1535      C1793   1.496       .  S
C1535      C1536   1.406   1_556  A
C1536      H1537   1.084       .  S
C1539      C1913   1.482       .  S
C1539      C1540   1.417       .  A
C1539      C1544   1.402       .  A
C1540      C2057   1.491       .  S
C1540      C1541   1.402       .  A
C1541      C1542   1.404       .  A
C1542      C1774   1.480       .  S
C1542      C1543   1.413       .  A
C1543      C1750   1.488       .  S
C1543      C1544   1.400       .  A
C1544      H1545   1.085       .  S
C1547      C2586   1.487       .  S
C1547      C1548   1.418       .  A
C1547      C1552   1.409       .  A
C1548      C2033   1.489       .  S
C1548      C1549   1.405       .  A
C1549      C1550   1.401   1_554  A
C1549      H1554   1.084       .  S
C1550      C1726   1.480       .  S
C1550      C1551   1.412   1_556  A
C1551      C1702   1.492   1_554  S
C1551      C1552   1.404       .  A
C1552      H2245   1.084       .  S
H1553      C2244   1.084   1_545  S
C1555      N1556   1.359       .  A
C1555      N1560   1.359       .  A
C1555      C1721   1.475       .  S
N1556      C1557   1.358       .  A
C1557      N1558   1.355       .  A
C1557      C1611   1.463       .  S
N1558      C1559   1.356       .  A
C1559      N1560   1.358       .  A
C1559      C1656   1.462       .  S
C1561      N1562   1.360       .  A
C1561      N1566   1.359       .  A
C1561      C1822   1.479       .  S
N1562      C1563   1.358       .  A
C1563      N1564   1.357       .  A
C1563      C1679   1.462       .  S
N1564      C1565   1.355       .  A
C1565      N1566   1.355       .  A
C1565      C1610   1.461       .  S
C1567      N1568   1.359       .  A
C1567      N1572   1.364       .  A
C1567      C1697   1.491       .  S
N1568      C1569   1.358       .  A
C1569      N1570   1.357       .  A
C1569      C1678   1.467       .  S
N1570      C1571   1.358       .  A
C1571      N1572   1.362       .  A
C1571      C1635   1.474       .  S
C1573      N1574   1.363       .  A
C1573      N1578   1.358       .  A
C1573      C1798   1.490       .  S
N1574      C1575   1.360       .  A
C1575      N1576   1.356       .  A
C1575      C1657   1.466       .  S
N1576      C1577   1.356       .  A
C1577      N1578   1.355       .  A
C1577      C1634   1.458       .  S
C1579      N1580   1.363       .  A
C1579      N1584   1.360       .  A
C1579      C1745   1.486       .  S
N1580      C1581   1.360       .  A
C1581      N1582   1.356       .  A
C1581      C1621   1.466       .  S
N1582      C1583   1.356       .  A
C1583      N1584   1.357       .  A
C1583      C1692   1.461       .  S
C1585      N1586   1.358       .  A
C1585      N1590   1.358       .  A
C1585      C1846   1.481       .  S
N1586      C1587   1.357       .  A
C1587      N1588   1.356       .  A
C1587      C1600   1.463       .  S
N1588      C1589   1.356       .  A
C1589      N1590   1.359       .  A
C1589      C1691   1.463       .  S
N1591      N1592   1.324       .  A
N1591      N1597   1.315       .  A
N1591     Mn1620   2.212       .  S
N1592      C1599   1.355       .  A
N1593      N1595   1.317       .  A
N1593      N1594   1.320       .  A
N1593     Mn1609   2.209       .  S
N1594      C1600   1.353       .  A
N1595      N1596   1.319       .  A
N1595     Mn1620   2.194       .  S
N1596      C1600   1.351       .  A
N1597      N1598   1.317       .  A
N1597     Mn1609   2.189       .  S
N1598      C1599   1.349       .  A
C1599      C1638   1.464       .  S
N1601      N1607   1.315       .  A
N1601      N1602   1.321       .  A
N1601     Mn1631   2.201       .  S
N1602      C1610   1.353       .  A
N1603      N1604   1.321       .  A
N1603      N1605   1.316       .  A
N1603     Mn1609   2.211       .  S
N1604      C1611   1.354       .  A
N1605      N1606   1.319       .  A
N1605     Mn1631   2.190       .  S
N1606      C1611   1.350       .  A
N1607      N1608   1.319       .  A
N1607     Mn1609   2.194       .  S
N1608      C1610   1.350       .  A
Mn1609    Cl1633   2.523       .  S
N1612      N1613   1.324       .  A
N1612      N1618   1.317       .  A
N1612     Mn1620   2.218       .  S
N1613      C1621   1.355       .  A
N1614      N1616   1.316       .  A
N1614      N1615   1.321       .  A
N1614     Mn1632   2.213       .  S
N1615      C1622   1.353       .  A
N1616      N1617   1.319       .  A
N1616     Mn1620   2.187       .  S
N1617      C1622   1.350       .  A
N1618      N1619   1.318       .  A
N1618     Mn1632   2.190       .  S
N1619      C1621   1.348       .  A
Mn1620    Cl1633   2.569       .  S
C1622      C1644   1.462       .  S
N1623      N1624   1.321       .  A
N1623      N1629   1.314       .  A
N1623     Mn1631   2.197       .  S
N1624      C1634   1.353       .  A
N1625      N1626   1.321       .  A
N1625      N1627   1.317       .  A
N1625     Mn1632   2.222       .  S
N1626      C1635   1.354       .  A
N1627      N1628   1.323       .  A
N1627     Mn1631   2.203       .  S
N1628      C1635   1.353       .  A
N1629      N1630   1.318       .  A
N1629     Mn1632   2.187       .  S
N1630      C1634   1.349       .  A
Mn1631    Cl1633   2.569       .  S
Mn1632    Cl1633   2.520       .  S
C1636      N1637   1.360       .  A
C1636      N1641   1.359       .  A
C1636      C1769   1.474       .  S
N1637      C1638   1.359       .  A
C1638      N1639   1.357       .  A
N1639      C1640   1.356       .  A
C1640      N1641   1.356       .  A
C1640      C1668   1.464       .  S
C1642      N1643   1.358       .  A
C1642      N1647   1.359       .  A
C1642      C1865   1.481       .  S
N1643      C1644   1.358       .  A
C1644      N1645   1.355       .  A
N1645      C1646   1.356       .  A
C1646      N1647   1.358       .  A
C1646      C1667   1.461       .  S
N1648      N1649   1.320       .  A
N1648      N1654   1.317       .  A
N1649      C1656   1.351       .  A
N1650      N1652   1.316       .  A
N1650      N1651   1.319       .  A
N1650     Mn1666   2.199       .  S
N1651      C1657   1.351       .  A
N1652      N1653   1.323       .  A
N1652     Mn1677   2.208       .  S
N1653      C1657   1.353       .  A
N1654      N1655   1.319       .  A
N1655      C1656   1.352       .  A
N1658      N1664   1.317       .  A
N1658      N1659   1.319       .  A
N1658     Mn1688   2.192       .  S
N1659      C1667   1.351       .  A
N1660      N1661   1.319       .  A
N1660      N1662   1.315       .  A
N1661      C1668   1.350       .  A
N1662      N1663   1.323       .  A
N1663      C1668   1.354       .  A
N1664      N1665   1.320       .  A
N1664     Mn1666   2.209       .  S
N1665      C1667   1.352       .  A
Mn1666    Cl1690   2.522       .  S
N1669      N1670   1.320       .  A
N1669      N1675   1.317       .  A
N1669     Mn2369   2.196   1_545  S
N1670      C1678   1.352       .  A
N1671      N1673   1.315       .  A
N1671      N1672   1.317       .  A
N1672      C1679   1.348       .  A
N1673      N1674   1.323       .  A
N1674      C1679   1.354       .  A
N1675      N1676   1.321       .  A
N1675     Mn1689   2.215       .  S
N1676      C1678   1.354       .  A
Mn1677     N2361   2.196       .  S
Mn1677    Cl1690   2.571       .  S
N1680      N1681   1.319       .  A
N1680      N1686   1.317       .  A
N1681      C1691   1.350       .  A
N1682      N1683   1.316       .  A
N1682      N1684   1.315       .  A
N1682     Mn1689   2.181       .  S
N1683      C1692   1.347       .  A
N1684      N1685   1.324       .  A
N1684     Mn2380   2.212   1_545  S
N1685      C1692   1.355       .  A
N1686      N1687   1.321       .  A
N1687      C1691   1.354       .  A
Mn1688     N2376   2.212       .  S
Mn1688    Cl1690   2.570       .  S
Mn1689    Cl2382   2.520   1_545  S
Cl1690    Mn2381   2.520       .  S
C1693      C1694   1.412       .  A
C1693      C1698   1.402       .  A
C1693      C1707   1.444       .  S
C1694      C1699   1.493       .  S
C1694      C1695   1.403       .  A
C1695      C1696   1.404       .  A
C1695      H2406   1.085   1_545  S
C1696      C1697   1.418       .  A
C1696      C1708   1.445   1_545  S
C1697      C1698   1.406       .  A
C1698      H1713   1.084       .  S
C1699      C1700   1.406   1_545  A
C1699      C1704   1.412       .  A
C1700      C1701   1.405       .  A
C1700      H1715   1.085       .  S
C1701      C2394   1.411       .  A
C1701      C1705   1.443       .  S
C1702      C2393   1.411       .  A
C1702      C2395   1.403       .  A
C1703      C2394   1.403   1_545  A
C1703      C1704   1.400       .  A
C1703      H2408   1.082       .  S
C1704      C1706   1.444       .  S
C1705      N1709   1.157       .  T
C1706      N1710   1.157       .  T
C1707      N1712   1.157       .  T
C1708      N2403   1.158       .  T
N1711      C2400   1.158       .  T
H1714      C2387   1.085       .  S
H1716      C2395   1.082       .  S
C1717      C1718   1.414       .  A
C1717      C1722   1.400       .  A
C1717      C1731   1.445       .  S
C1718      C1723   1.491       .  S
C1718      C1719   1.406       .  A
C1719      C1720   1.401       .  A
C1719      H1738   1.085       .  S
C1720      C1721   1.409       .  A
C1720      C1732   1.444       .  S
C1721      C1722   1.402       .  A
C1722      H1737   1.085       .  S
C1723      C1724   1.406       .  A
C1723      C1728   1.414       .  A
C1724      C1725   1.398       .  A
C1724      H1739   1.084       .  S
C1725      C1726   1.408       .  A
C1725      C1729   1.444       .  S
C1726      C1727   1.402       .  A
C1727      C1728   1.401       .  A
C1727      H1740   1.085       .  S
C1728      C1730   1.444       .  S
C1729      N1733   1.157       .  T
C1730      N1734   1.157       .  T
C1731      N1736   1.157       .  T
C1732      N1735   1.157       .  T
C1741      C1742   1.410       .  A
C1741      C1746   1.402       .  A
C1741      C1755   1.443       .  S
C1742      C1747   1.486       .  S
C1742      C1743   1.401       .  A
C1743      C1744   1.402       .  A
C1743      H1762   1.085       .  S
C1744      C1745   1.418       .  A
C1744      C1756   1.445       .  S
C1745      C1746   1.404       .  A
C1746      H1761   1.085       .  S
C1747      C1748   1.402       .  A
C1747      C1752   1.412       .  A
C1748      C1749   1.401       .  A
C1748      H1763   1.085       .  S
C1749      C1750   1.413       .  A
C1749      C1753   1.444       .  S
C1750      C1751   1.404       .  A
C1751      C1752   1.403       .  A
C1751      H1764   1.085       .  S
C1752      C1754   1.444       .  S
C1753      N1757   1.157       .  T
C1754      N1758   1.157       .  T
C1755      N1760   1.157       .  T
C1756      N1759   1.158       .  T
C1765      C1766   1.411       .  A
C1765      C1770   1.404       .  A
C1765      C1779   1.443       .  S
C1766      C1771   1.479       .  S
C1766      C1767   1.399       .  A
C1767      C1768   1.398       .  A
C1768      C1769   1.413       .  A
C1768      C1780   1.445       .  S
C1769      C1770   1.402       .  A
C1770      H1785   1.084       .  S
C1771      C1772   1.401       .  A
C1771      C1776   1.410       .  A
C1772      C1773   1.399   1_655  A
C1772      H1787   1.085       .  S
C1773      C1777   1.444       .  S
C1774      C1775   1.403       .  A
C1775      H1788   1.085       .  S
C1777      N1781   1.157       .  T
C1778      N1782   1.157       .  T
C1779      N1784   1.157       .  T
C1789      C1790   1.412       .  A
C1789      C1794   1.402       .  A
C1789      C1803   1.444       .  S
C1790      C1795   1.490       .  S
C1790      C1791   1.402       .  A
C1791      C1792   1.401       .  A
C1791      H1810   1.085       .  S
C1792      C1793   1.417       .  A
C1792      C1804   1.444       .  S
C1793      C1794   1.406       .  A
C1794      H1809   1.085       .  S
C1795      C1796   1.404       .  A
C1795      C1800   1.411       .  A
C1796      C1797   1.402       .  A
C1796      H1811   1.085       .  S
C1797      C1798   1.413       .  A
C1797      C1801   1.443       .  S
C1798      C1799   1.410       .  A
C1799      C1800   1.401       .  A
C1799      H1812   1.085       .  S
C1800      C1802   1.445       .  S
C1801      N1805   1.157       .  T
C1802      N1806   1.158       .  T
C1803      N1808   1.157       .  T
C1804      N1807   1.157   1_556  T
C1813      C1818   1.402       .  A
C1813      C1827   1.443       .  S
C1814      C1819   1.482       .  S
C1814      C1815   1.401       .  A
C1815      C1816   1.396       .  A
C1815      H1834   1.085       .  S
C1816      C1817   1.413   1_655  A
C1816      C1828   1.445       .  S
C1818      H1833   1.085       .  S
C1819      C1820   1.404       .  A
C1819      C1824   1.409       .  A
C1820      C1821   1.404       .  A
C1820      H1835   1.085       .  S
C1821      C1822   1.411       .  A
C1821      C1825   1.443       .  S
C1822      C1823   1.405       .  A
C1823      C1824   1.396       .  A
C1823      H1836   1.085       .  S
C1824      C1826   1.445       .  S
C1825      N1829   1.157       .  T
C1826      N1830   1.157       .  T
C1827      N1832   1.157       .  T
C1828      N1831   1.157       .  T
C1837      C1838   1.410   1_565  A
C1837      C1842   1.402       .  A
C1837      C1851   1.443       .  S
C1838      C1843   1.483       .  S
C1838      C1839   1.401       .  A
C1839      C2532   1.399       .  A
C1839      H1858   1.085       .  S
C1840      C2531   1.399       .  A
C1840      C1841   1.414       .  A
C1840      C1852   1.443       .  S
C1841      C2534   1.404       .  A
C1842      C2533   1.404       .  A
C1842      H1857   1.085       .  S
C1843      C1844   1.401       .  A
C1843      C1848   1.411       .  A
C1844      C1845   1.399       .  A
C1844      H1859   1.085       .  S
C1845      C1846   1.414       .  A
C1845      C1849   1.444       .  S
C1846      C1847   1.406       .  A
C1847      C1848   1.402       .  A
C1847      H1860   1.085   1_545  S
C1848      C2542   1.444   1_545  S
C1849      N1853   1.157       .  T
C1850      C2540   1.444       .  S
C1850      N1854   1.157       .  T
C1851      N1856   1.157       .  T
C1852      N1855   1.157       .  T
C1861      C1862   1.411       .  A
C1861      C1866   1.400       .  A
C1861      C1875   1.444       .  S
C1862      C1867   1.484       .  S
C1862      C1863   1.402       .  A
C1863      C1864   1.400       .  A
C1863      H1882   1.085       .  S
C1864      C1865   1.414       .  A
C1864      C1876   1.444       .  S
C1865      C1866   1.405       .  A
C1866      H1881   1.085       .  S
C1867      C1868   1.403       .  A
C1867      C1872   1.412       .  A
C1868      C1869   1.399       .  A
C1868      H1883   1.085       .  S
C1869      C1870   1.411       .  A
C1869      C1873   1.444       .  S
C1870      C1871   1.403       .  A
C1871      C1872   1.400       .  A
C1871      H1884   1.085       .  S
C1872      C1874   1.444       .  S
C1873      N1877   1.157       .  T
C1874      N1878   1.157       .  T
C1875      N1880   1.157       .  T
C1876      N1879   1.157       .  T
C1885      C1886   1.414       .  A
C1885      C1890   1.405       .  A
C1885      C1899   1.444       .  S
C1886      C1891   1.490       .  S
C1886      C1887   1.401       .  A
C1887      C1888   1.399       .  A
C1887      H1906   1.085   1_545  S
C1888      C1889   1.417       .  A
C1888      C1900   1.445       .  S
C1889      C1890   1.405       .  A
C1890      H1905   1.085       .  S
C1891      C1892   1.403       .  A
C1891      C2588   1.412       .  A
C1892      C1893   1.402       .  A
C1892      H1907   1.085       .  S
C1893      C1894   1.413   1_545  A
C1893      C1897   1.442       .  S
C1894      C2239   1.487       .  S
C1894      C2587   1.403       .  A
C1895      C2586   1.404       .  A
C1895      C1896   1.401       .  A
C1895      H1908   1.085       .  S
C1896      C2583   1.412       .  A
C1896      C1898   1.444       .  S
C1897      N1901   1.157       .  T
C1898      N1902   1.157       .  T
C1899      N1904   1.157       .  T
C1900      N1903   1.157   1_545  T
C1909      C1910   1.408       .  A
C1909      C1914   1.397       .  A
C1909      C1923   1.444       .  S
C1910      C1915   1.476       .  S
C1910      C1911   1.402       .  A
C1911      C1912   1.398       .  A
C1911      H1930   1.085       .  S
C1912      C1913   1.411       .  A
C1912      C1924   1.443       .  S
C1913      C1914   1.405       .  A
C1914      H1929   1.085       .  S
C1915      C1916   1.401       .  A
C1915      C1920   1.407       .  A
C1916      C1917   1.397       .  A
C1916      H1931   1.085       .  S
C1917      C1918   1.415       .  A
C1917      C1921   1.445       .  S
C1918      C1919   1.406       .  A
C1919      C1920   1.398       .  A
C1919      H1932   1.084       .  S
C1920      C1922   1.444       .  S
C1921      N1925   1.157       .  T
C1922      N1926   1.157       .  T
C1923      N1928   1.157       .  T
C1924      N1927   1.157       .  T
C1933      C1934   1.410       .  A
C1933      C1938   1.401       .  A
C1933      C1947   1.445       .  S
C1934      C1939   1.486       .  S
C1934      C1935   1.403       .  A
C1935      C1936   1.403       .  A
C1935      H1954   1.085       .  S
C1936      C1937   1.413       .  A
C1936      C1948   1.443       .  S
C1937      C1938   1.407       .  A
C1938      H1953   1.085       .  S
C1939      C2632   1.403   1_545  A
C1939      C1944   1.409       .  A
C1940      C2631   1.403       .  A
C1940      C1941   1.403       .  A
C1940      H1955   1.085       .  S
C1941      C1942   1.414       .  A
C1941      C1945   1.443       .  S
C1942      C2635   1.405       .  A
C1943      C2634   1.405   1_545  A
C1943      C1944   1.400       .  A
C1943      H1956   1.085       .  S
C1944      C1946   1.443       .  S
C1945      N1949   1.157       .  T
C1946      N1950   1.157       .  T
C1947      N1952   1.157       .  T
C1948      N1951   1.157       .  T
C1957      C1958   1.411       .  A
C1957      C1962   1.397       .  A
C1957      C1971   1.444       .  S
C1958      C1963   1.484       .  S
C1958      C1959   1.403       .  A
C1959      C1960   1.400       .  A
C1959      H1978   1.085       .  S
C1960      C1961   1.412       .  A
C1961      C1962   1.403       .  A
C1962      H1977   1.085       .  S
C1963      C1964   1.401       .  A
C1963      C1968   1.411       .  A
C1964      C1965   1.398       .  A
C1964      H1979   1.085       .  S
C1965      C1966   1.416       .  A
C1965      C1969   1.444       .  S
C1966      C1967   1.407       .  A
C1967      C1968   1.401       .  A
C1967      H1980   1.085       .  S
C1968      C1970   1.445       .  S
C1969      N1973   1.157       .  T
C1970      N1974   1.157       .  T
C1971      N1976   1.157       .  T
C1972      N1975   1.157       .  T
C1981      C1982   1.415       .  A
C1981      C1986   1.400       .  A
C1981      C1995   1.443       .  S
C1982      C1987   1.494       .  S
C1982      C1983   1.405       .  A
C1983      C1984   1.400   1_655  A
C1983      H2002   1.093       .  S
C1984      C1985   1.411   1_455  A
C1984      C1996   1.444       .  S
C1985      C1986   1.402       .  A
C1987      C1988   1.403       .  A
C1987      C1992   1.414       .  A
C1988      C1989   1.402       .  A
C1988      H2003   1.088       .  S
C1989      C1990   1.419       .  A
C1989      C1993   1.445       .  S
C1990      C1991   1.405       .  A
C1991      C1992   1.401       .  A
C1991      H2004   1.087       .  S
C1993      N1997   1.158       .  T
C1994      N1998   1.157       .  T
C1995      N2000   1.157       .  T
C1996      N1999   1.157       .  T
C2005      C2006   1.409       .  A
C2005      C2010   1.399       .  A
C2005      C2019   1.445       .  S
C2006      C2011   1.485       .  S
C2006      C2007   1.404       .  A
C2007      C2008   1.404       .  A
C2007      H2026   1.085       .  S
C2008      C2009   1.412       .  A
C2008      C2020   1.443       .  S
C2009      C2010   1.408       .  A
C2010      H2025   1.084       .  S
C2011      C2012   1.403       .  A
C2011      C2016   1.410       .  A
C2012      C2013   1.402       .  A
C2012      H2027   1.085       .  S
C2013      C2014   1.413       .  A
C2013      C2017   1.443       .  S
C2014      C2015   1.405       .  A
C2015      C2016   1.400       .  A
C2015      H2028   1.085       .  S
C2016      C2018   1.444       .  S
C2017      N2713   1.157       .  T
C2018      N2022   1.157       .  T
C2019      N2024   1.157       .  T
C2020      N2023   1.157       .  T
N2021      C2709   1.157       .  T
C2029      C2030   1.412       .  A
C2029      C2034   1.404       .  A
C2029      C2043   1.444       .  S
C2030      C2035   1.488       .  S
C2030      C2031   1.403       .  A
C2031      C2032   1.399       .  A
C2031      H2050   1.084       .  S
C2032      C2033   1.413       .  A
C2032      C2044   1.444       .  S
C2033      C2034   1.405       .  A
C2034      H2049   1.084       .  S
C2035      C2036   1.406       .  A
C2035      C2040   1.410       .  A
C2036      C2037   1.405       .  A
C2036      H2051   1.084       .  S
C2037      C2038   1.413       .  A
C2037      C2041   1.444       .  S
C2038      C2039   1.406       .  A
C2039      C2040   1.396       .  A
C2039      H2052   1.085       .  S
C2040      C2042   1.445       .  S
C2041      N2045   1.157       .  T
C2042      N2046   1.157       .  T
C2043      N2048   1.157       .  T
C2044      N2047   1.157       .  T
C2053      C2058   1.402       .  A
C2053      C2067   1.443       .  S
C2054      C2059   1.489       .  S
C2054      C2055   1.404       .  A
C2055      C2056   1.403       .  A
C2055      H2074   1.085       .  S
C2056      C2068   1.443       .  S
C2057      C2058   1.404       .  A
C2058      H2073   1.085       .  S
C2059      C2060   1.403       .  A
C2059      C2064   1.409       .  A
C2060      C2061   1.403       .  A
C2061      C2062   1.417       .  A
C2061      C2065   1.445   1_655  S
C2062      C2063   1.407       .  A
C2063      C2064   1.402       .  A
C2063      H2076   1.084       .  S
C2064      C2066   1.443       .  S
C2066      N2070   1.157       .  T
C2067      N2072   1.157       .  T
C2068      N2071   1.157       .  T
C2077      N2078   1.362       .  A
C2077      N2082   1.360       .  A
C2077      C2754   1.489       .  S
N2078      C2079   1.360       .  A
C2079      N2080   1.356       .  A
C2079      C2178   1.469       .  S
N2080      C2081   1.356       .  A
C2081      N2082   1.358       .  A
C2081      C2121   1.466       .  S
C2083      N2084   1.359       .  A
C2083      N2088   1.360       .  A
C2083      C2730   1.484       .  S
N2084      C2085   1.354       .  A
C2085      N2086   1.356       .  A
C2085      C2109   1.461       .  S
N2086      C2087   1.357       .  A
C2087      N2088   1.359       .  A
C2087      C2190   1.463       .  S
C2089      N2090   1.359       .  A
C2089      N2094   1.363       .  A
C2089      C2701   1.485       .  S
N2090      C2091   1.355       .  A
C2091      N2092   1.355       .  A
C2091      C2179   1.460       .  S
N2092      C2093   1.356       .  A
C2093      N2094   1.361       .  A
C2093      C2144   1.464       .  S
C2095      N2096   1.357       .  A
C2095      N2100   1.362       .  A
C2095      C2682   1.490       .  S
N2096      C2097   1.356       .  A
C2097      N2098   1.354       .  A
C2097      C2213   1.458       .  S
N2098      C2099   1.355       .  A
C2099      N2100   1.361       .  A
C2099      C2110   1.464       .  S
N2101      N2102   1.321       .  A
N2101     Mn2130   2.203       .  S
N2103      N2104   1.321       .  A
N2104      C2110   1.354       .  A
N2105      N2106   1.320       .  A
N2107      N2108   1.318       .  A
N2107     Mn2119   2.192       .  S
N2108      C2109   1.350       .  A
N2111      N2112   1.324       .  A
N2113      N2114   1.321       .  A
N2113     Mn2119   2.211       .  S
N2114      C2121   1.353       .  A
N2115      N2116   1.320       .  A
N2115     Mn2141   2.196       .  S
N2117      N2118   1.319       .  A
N2118      C2120   1.350       .  A
C2120      C2154   1.467       .  S
N2122      N2123   1.323       .  A
N2122      N2128   1.315       .  A
N2123      C2131   1.355       .  A
N2124      N2126   1.315       .  A
N2124      N2125   1.321       .  A
N2124     Mn2142   2.208       .  S
N2125      C2132   1.353       .  A
N2126      N2127   1.319       .  A
N2126     Mn2130   2.189       .  S
N2127      C2132   1.351       .  A
N2128      N2129   1.318       .  A
N2129      C2131   1.350       .  A
Mn2130    Cl2143   2.569       .  S
C2131      C2166   1.465       .  S
C2132      C2150   1.464       .  S
N2133      N2134   1.324       .  A
N2133      N2139   1.316       .  A
N2133     Mn2141   2.208       .  S
N2134      C2144   1.354       .  A
N2135      N2136   1.318       .  A
N2135      N2137   1.317       .  A
N2136      C2145   1.350       .  A
N2137      N2138   1.319       .  A
N2138      C2145   1.351       .  A
N2139      N2140   1.318       .  A
N2139     Mn2142   2.194       .  S
N2140      C2144   1.349       .  A
Mn2141    Cl2143   2.570       .  S
Mn2142    Cl2143   2.521       .  S
C2145      C2162   1.458       .  S
C2146      N2147   1.358       .  A
C2146      N2151   1.359       .  A
C2146      C2658   1.484       .  S
N2147      C2148   1.356       .  A
C2148      N2149   1.357       .  A
C2148      C2189   1.464       .  S
N2149      C2150   1.357       .  A
C2150      N2151   1.359       .  A
C2152      N2153   1.362       .  A
C2152      N2157   1.361       .  A
C2152      C2629   1.486       .  S
N2153      C2154   1.359       .  A
C2154      N2155   1.356       .  A
N2155      C2156   1.356       .  A
C2156      N2157   1.358       .  A
C2156      C2201   1.463       .  S
C2158      N2159   1.358       .  A
C2158      N2163   1.357       .  A
C2158      C2610   1.478       .  S
N2159      C2160   1.356       .  A
C2160      N2161   1.355       .  A
C2160      C2200   1.460       .  S
N2161      C2162   1.355       .  A
C2162      N2163   1.355       .  A
C2164      N2165   1.360       .  A
C2164      N2169   1.362       .  A
C2164      C2581   1.485       .  S
N2165      C2166   1.355       .  A
C2166      N2167   1.355       .  A
N2167      C2168   1.357       .  A
C2168      N2169   1.360       .  A
C2168      C2214   1.465       .  S
N2170      N2171   1.321       .  A
N2170      N2176   1.317       .  A
N2170     Mn2199   2.199       .  S
N2171      C2178   1.352       .  A
N2172      N2174   1.315       .  A
N2172      N2173   1.318       .  A
N2172     Mn2188   2.188       .  S
N2173      C2179   1.349       .  A
N2174      N2175   1.322       .  A
N2174     Mn2199   2.208       .  S
N2175      C2179   1.353       .  A
N2176      N2177   1.321       .  A
N2176     Mn2188   2.215       .  S
N2177      C2178   1.354       .  A
N2180      N2186   1.317       .  A
N2180      N2181   1.319       .  A
N2180     Mn2210   2.194       .  S
N2181      C2189   1.352       .  A
N2182      N2183   1.318       .  A
N2182      N2184   1.315       .  A
N2182     Mn2188   2.191       .  S
N2183      C2190   1.350       .  A
N2184      N2185   1.323       .  A
N2184     Mn2210   2.205       .  S
N2185      C2190   1.353       .  A
N2186      N2187   1.321       .  A
N2186     Mn2188   2.211       .  S
N2187      C2189   1.352       .  A
Mn2188    Cl2212   2.522       .  S
N2191      N2192   1.320       .  A
N2191      N2197   1.317       .  A
N2191     Mn2199   2.196       .  S
N2192      C2200   1.352       .  A
N2193      N2195   1.315       .  A
N2193      N2194   1.318       .  A
N2193     Mn2211   2.192       .  S
N2194      C2201   1.348       .  A
N2195      N2196   1.323       .  A
N2195     Mn2199   2.207       .  S
N2196      C2201   1.354       .  A
N2197      N2198   1.319       .  A
N2197     Mn2211   2.201       .  S
N2198      C2200   1.351       .  A
Mn2199    Cl2212   2.570       .  S
N2202      N2203   1.317       .  A
N2202      N2208   1.316       .  A
N2202     Mn2210   2.185       .  S
N2203      C2213   1.349       .  A
N2204      N2205   1.318       .  A
N2204      N2206   1.315       .  A
N2204     Mn2211   2.194       .  S
N2205      C2214   1.349       .  A
N2206      N2207   1.324       .  A
N2206     Mn2210   2.207       .  S
N2207      C2214   1.354       .  A
N2208      N2209   1.320       .  A
N2208     Mn2211   2.205       .  S
N2209      C2213   1.353       .  A
Mn2210    Cl2212   2.568       .  S
Mn2211    Cl2212   2.519       .  S
C2215      C2706   1.490       .  S
C2215      C2216   1.420       .  A
C2215      C2220   1.405       .  A
C2216      C2634   1.492       .  S
C2216      C2217   1.408       .  A
C2217      C2218   1.404       .  A
C2218      C2533   1.489       .  S
C2218      C2219   1.414       .  A
C2219      C2562   1.486       .  S
C2219      C2220   1.400       .  A
C2220      H2221   1.085       .  S
C2223      C2653   1.484       .  S
C2223      C2224   1.413       .  A
C2223      C2228   1.403       .  A
C2225      H2230   1.085   1_455  S
C2226      C2227   1.420       .  A
C2227      C2485   1.496       .  S
C2227      C2228   1.406   1_556  A
C2228      H2229   1.084       .  S
C2231      C2605   1.482       .  S
C2231      C2232   1.417       .  A
C2231      C2236   1.402       .  A
C2232      C2749   1.491       .  S
C2232      C2233   1.402       .  A
C2233      C2234   1.404       .  A
C2234      C2466   1.480       .  S
C2234      C2235   1.413       .  A
C2235      C2442   1.488       .  S
C2235      C2236   1.400       .  A
C2236      H2237   1.085       .  S
C2239      C2240   1.418       .  A
C2239      C2244   1.409       .  A
C2240      C2725   1.489       .  S
C2240      C2241   1.405       .  A
C2241      C2242   1.401   1_554  A
C2241      H2246   1.084       .  S
C2242      C2418   1.480       .  S
C2242      C2243   1.412   1_556  A
C2243      C2394   1.492   1_554  S
C2243      C2244   1.404       .  A
C2247      N2248   1.359       .  A
C2247      N2252   1.359       .  A
C2247      C2413   1.475       .  S
N2248      C2249   1.358       .  A
C2249      N2250   1.355       .  A
C2249      C2303   1.463       .  S
N2250      C2251   1.356       .  A
C2251      N2252   1.358       .  A
C2251      C2348   1.462       .  S
C2253      N2254   1.360       .  A
C2253      N2258   1.359       .  A
C2253      C2514   1.479       .  S
N2254      C2255   1.358       .  A
C2255      N2256   1.357       .  A
C2255      C2371   1.462       .  S
N2256      C2257   1.355       .  A
C2257      N2258   1.355       .  A
C2257      C2302   1.461       .  S
C2259      N2260   1.359       .  A
C2259      N2264   1.364       .  A
C2259      C2389   1.491       .  S
N2260      C2261   1.358       .  A
C2261      N2262   1.357       .  A
C2261      C2370   1.467       .  S
N2262      C2263   1.358       .  A
C2263      N2264   1.362       .  A
C2263      C2327   1.474       .  S
C2265      N2266   1.363       .  A
C2265      N2270   1.358       .  A
C2265      C2490   1.490       .  S
N2266      C2267   1.360       .  A
C2267      N2268   1.356       .  A
C2267      C2349   1.466       .  S
N2268      C2269   1.356       .  A
C2269      N2270   1.355       .  A
C2269      C2326   1.458       .  S
C2271      N2272   1.363       .  A
C2271      N2276   1.360       .  A
C2271      C2437   1.486       .  S
N2272      C2273   1.360       .  A
C2273      N2274   1.356       .  A
C2273      C2313   1.466       .  S
N2274      C2275   1.356       .  A
C2275      N2276   1.357       .  A
C2275      C2384   1.461       .  S
C2277      N2278   1.358       .  A
C2277      N2282   1.358       .  A
C2277      C2538   1.481       .  S
N2278      C2279   1.357       .  A
C2279      N2280   1.356       .  A
C2279      C2292   1.463       .  S
N2280      C2281   1.356       .  A
C2281      N2282   1.359       .  A
C2281      C2383   1.463       .  S
N2283      N2284   1.324       .  A
N2283      N2289   1.315       .  A
N2283     Mn2312   2.212       .  S
N2284      C2291   1.355       .  A
N2285      N2287   1.317       .  A
N2285      N2286   1.320       .  A
N2285     Mn2301   2.209       .  S
N2286      C2292   1.353       .  A
N2287      N2288   1.319       .  A
N2287     Mn2312   2.194       .  S
N2288      C2292   1.351       .  A
N2289      N2290   1.317       .  A
N2289     Mn2301   2.189       .  S
N2290      C2291   1.349       .  A
C2291      C2330   1.464       .  S
N2293      N2299   1.315       .  A
N2293      N2294   1.321       .  A
N2293     Mn2323   2.201       .  S
N2294      C2302   1.353       .  A
N2295      N2296   1.321       .  A
N2295      N2297   1.316       .  A
N2295     Mn2301   2.211       .  S
N2296      C2303   1.354       .  A
N2297      N2298   1.319       .  A
N2297     Mn2323   2.190       .  S
N2298      C2303   1.350       .  A
N2299      N2300   1.319       .  A
N2299     Mn2301   2.194       .  S
N2300      C2302   1.350       .  A
Mn2301    Cl2325   2.523       .  S
N2304      N2305   1.324       .  A
N2304      N2310   1.317       .  A
N2304     Mn2312   2.218       .  S
N2305      C2313   1.355       .  A
N2306      N2308   1.316       .  A
N2306      N2307   1.321       .  A
N2306     Mn2324   2.213       .  S
N2307      C2314   1.353       .  A
N2308      N2309   1.319       .  A
N2308     Mn2312   2.187       .  S
N2309      C2314   1.350       .  A
N2310      N2311   1.318       .  A
N2310     Mn2324   2.190       .  S
N2311      C2313   1.348       .  A
Mn2312    Cl2325   2.569       .  S
C2314      C2336   1.462       .  S
N2315      N2316   1.321       .  A
N2315      N2321   1.314       .  A
N2315     Mn2323   2.197       .  S
N2316      C2326   1.353       .  A
N2317      N2318   1.321       .  A
N2317      N2319   1.317       .  A
N2317     Mn2324   2.222       .  S
N2318      C2327   1.354       .  A
N2319      N2320   1.323       .  A
N2319     Mn2323   2.203       .  S
N2320      C2327   1.353       .  A
N2321      N2322   1.318       .  A
N2321     Mn2324   2.187       .  S
N2322      C2326   1.349       .  A
Mn2323    Cl2325   2.569       .  S
Mn2324    Cl2325   2.520       .  S
C2328      N2329   1.360       .  A
C2328      N2333   1.359       .  A
C2328      C2461   1.474       .  S
N2329      C2330   1.359       .  A
C2330      N2331   1.357       .  A
N2331      C2332   1.356       .  A
C2332      N2333   1.356       .  A
C2332      C2360   1.464       .  S
C2334      N2335   1.358       .  A
C2334      N2339   1.359       .  A
C2334      C2557   1.481       .  S
N2335      C2336   1.358       .  A
C2336      N2337   1.355       .  A
N2337      C2338   1.356       .  A
C2338      N2339   1.358       .  A
C2338      C2359   1.461       .  S
N2340      N2341   1.320       .  A
N2340      N2346   1.317       .  A
N2341      C2348   1.351       .  A
N2342      N2344   1.316       .  A
N2342      N2343   1.319       .  A
N2342     Mn2358   2.199       .  S
N2343      C2349   1.351       .  A
N2344      N2345   1.323       .  A
N2344     Mn2369   2.208       .  S
N2345      C2349   1.353       .  A
N2346      N2347   1.319       .  A
N2347      C2348   1.352       .  A
N2350      N2356   1.317       .  A
N2350      N2351   1.319       .  A
N2350     Mn2380   2.193       .  S
N2351      C2359   1.351       .  A
N2352      N2353   1.319       .  A
N2352      N2354   1.315       .  A
N2353      C2360   1.350       .  A
N2354      N2355   1.323       .  A
N2355      C2360   1.354       .  A
N2356      N2357   1.320       .  A
N2356     Mn2358   2.209       .  S
N2357      C2359   1.352       .  A
Mn2358    Cl2382   2.522       .  S
N2361      N2362   1.320       .  A
N2361      N2367   1.317       .  A
N2362      C2370   1.352       .  A
N2363      N2365   1.315       .  A
N2363      N2364   1.317       .  A
N2364      C2371   1.348       .  A
N2365      N2366   1.323       .  A
N2366      C2371   1.354       .  A
N2367      N2368   1.321       .  A
N2367     Mn2381   2.215       .  S
N2368      C2370   1.354       .  A
Mn2369    Cl2382   2.571       .  S
N2372      N2373   1.319       .  A
N2372      N2378   1.317       .  A
N2373      C2383   1.350       .  A
N2374      N2375   1.316       .  A
N2374      N2376   1.315       .  A
N2374     Mn2381   2.181       .  S
N2375      C2384   1.347       .  A
N2376      N2377   1.324       .  A
N2377      C2384   1.355       .  A
N2378      N2379   1.321       .  A
N2379      C2383   1.354       .  A
Mn2380    Cl2382   2.570       .  S
C2385      C2386   1.412       .  A
C2385      C2390   1.402       .  A
C2385      C2399   1.444       .  S
C2386      C2391   1.493       .  S
C2386      C2387   1.403       .  A
C2387      C2388   1.404       .  A
C2388      C2389   1.418       .  A
C2388      C2400   1.445       .  S
C2389      C2390   1.406       .  A
C2390      H2405   1.084       .  S
C2391      C2392   1.406       .  A
C2391      C2396   1.412       .  A
C2392      C2393   1.405       .  A
C2392      H2407   1.085       .  S
C2393      C2397   1.443       .  S
C2395      C2396   1.400       .  A
C2396      C2398   1.444       .  S
C2397      N2401   1.157       .  T
C2398      N2402   1.157       .  T
C2399      N2404   1.157       .  T
C2409      C2410   1.414       .  A
C2409      C2414   1.400       .  A
C2409      C2423   1.445       .  S
C2410      C2415   1.491       .  S
C2410      C2411   1.406       .  A
C2411      C2412   1.401       .  A
C2411      H2430   1.085       .  S
C2412      C2413   1.409       .  A
C2412      C2424   1.444       .  S
C2413      C2414   1.402       .  A
C2414      H2429   1.085       .  S
C2415      C2416   1.406       .  A
C2415      C2420   1.414       .  A
C2416      C2417   1.398       .  A
C2416      H2431   1.084       .  S
C2417      C2418   1.408       .  A
C2417      C2421   1.444       .  S
C2418      C2419   1.402       .  A
C2419      C2420   1.401       .  A
C2419      H2432   1.085       .  S
C2420      C2422   1.444       .  S
C2421      N2425   1.157   1_565  T
C2422      N2426   1.157       .  T
C2423      N2428   1.157       .  T
C2424      N2427   1.157       .  T
C2433      C2434   1.410       .  A
C2433      C2438   1.402       .  A
C2433      C2447   1.443       .  S
C2434      C2439   1.486       .  S
C2434      C2435   1.401       .  A
C2435      C2436   1.402       .  A
C2435      H2454   1.085       .  S
C2436      C2437   1.418       .  A
C2436      C2448   1.445       .  S
C2437      C2438   1.404       .  A
C2438      H2453   1.085       .  S
C2439      C2440   1.402       .  A
C2439      C2444   1.412       .  A
C2440      C2441   1.401       .  A
C2440      H2455   1.085       .  S
C2441      C2442   1.413       .  A
C2441      C2445   1.444       .  S
C2442      C2443   1.404       .  A
C2443      C2444   1.403       .  A
C2443      H2456   1.085       .  S
C2444      C2446   1.444       .  S
C2445      N2449   1.157       .  T
C2446      N2450   1.157       .  T
C2447      N2452   1.157       .  T
C2448      N2451   1.158       .  T
C2457      C2458   1.411       .  A
C2457      C2462   1.404       .  A
C2457      C2471   1.443       .  S
C2458      C2463   1.479       .  S
C2458      C2459   1.399       .  A
C2459      C2460   1.398       .  A
C2460      C2461   1.413       .  A
C2460      C2472   1.445       .  S
C2461      C2462   1.402       .  A
C2462      H2477   1.084       .  S
C2463      C2464   1.401       .  A
C2463      C2468   1.410       .  A
C2464      C2465   1.399   1_655  A
C2464      H2479   1.085       .  S
C2465      C2469   1.444       .  S
C2466      C2467   1.403       .  A
C2467      H2480   1.085       .  S
C2469      N2473   1.157       .  T
C2470      N2474   1.157       .  T
C2471      N2476   1.157       .  T
C2481      C2482   1.412       .  A
C2481      C2486   1.402       .  A
C2481      C2495   1.444       .  S
C2482      C2487   1.490       .  S
C2482      C2483   1.402       .  A
C2483      C2484   1.401       .  A
C2483      H2502   1.085       .  S
C2484      C2485   1.417       .  A
C2484      C2496   1.444       .  S
C2485      C2486   1.406       .  A
C2486      H2501   1.085       .  S
C2487      C2488   1.404       .  A
C2487      C2492   1.411       .  A
C2488      C2489   1.402       .  A
C2488      H2503   1.085       .  S
C2489      C2490   1.413       .  A
C2489      C2493   1.443       .  S
C2490      C2491   1.410       .  A
C2491      C2492   1.401       .  A
C2491      H2504   1.084       .  S
C2492      C2494   1.445       .  S
C2493      N2497   1.157       .  T
C2494      N2498   1.158       .  T
C2495      N2500   1.157       .  T
C2496      N2499   1.157   1_556  T
C2505      C2510   1.402       .  A
C2505      C2519   1.443       .  S
C2506      C2511   1.482       .  S
C2506      C2507   1.401       .  A
C2507      C2508   1.396       .  A
C2507      H2526   1.085       .  S
C2508      C2509   1.413   1_655  A
C2508      C2520   1.445       .  S
C2510      H2525   1.085       .  S
C2511      C2512   1.404       .  A
C2511      C2516   1.409       .  A
C2512      C2513   1.404       .  A
C2512      H2527   1.085       .  S
C2513      C2514   1.411       .  A
C2513      C2517   1.443       .  S
C2514      C2515   1.405       .  A
C2515      C2516   1.396       .  A
C2515      H2528   1.085       .  S
C2516      C2518   1.445       .  S
C2517      N2521   1.157       .  T
C2518      N2522   1.157       .  T
C2519      N2524   1.157       .  T
C2520      N2523   1.157       .  T
C2529      C2530   1.410       .  A
C2529      C2534   1.402       .  A
C2529      C2543   1.443       .  S
C2530      C2535   1.483       .  S
C2530      C2531   1.401       .  A
C2531      H2550   1.085       .  S
C2532      C2533   1.414   1_545  A
C2532      C2544   1.443       .  S
C2534      H2549   1.085       .  S
C2535      C2536   1.401       .  A
C2535      C2540   1.411       .  A
C2536      C2537   1.399       .  A
C2536      H2551   1.085       .  S
C2537      C2538   1.414       .  A
C2537      C2541   1.444       .  S
C2538      C2539   1.406       .  A
C2539      C2540   1.402       .  A
C2539      H2552   1.085       .  S
C2541      N2545   1.157       .  T
C2542      N2546   1.157       .  T
C2543      N2548   1.157       .  T
C2544      N2547   1.157       .  T
C2553      C2554   1.411       .  A
C2553      C2558   1.400       .  A
C2553      C2567   1.444       .  S
C2554      C2559   1.484       .  S
C2554      C2555   1.402       .  A
C2555      C2556   1.400       .  A
C2555      H2574   1.085       .  S
C2556      C2557   1.414       .  A
C2556      C2568   1.444       .  S
C2557      C2558   1.405       .  A
C2558      H2573   1.085       .  S
C2559      C2560   1.403       .  A
C2559      C2564   1.412       .  A
C2560      C2561   1.399       .  A
C2560      H2575   1.085       .  S
C2561      C2562   1.411       .  A
C2561      C2565   1.444       .  S
C2562      C2563   1.403       .  A
C2563      C2564   1.400       .  A
C2563      H2576   1.085       .  S
C2564      C2566   1.444       .  S
C2565      N2569   1.157       .  T
C2566      N2570   1.157       .  T
C2567      N2572   1.157       .  T
C2568      N2571   1.157       .  T
C2577      C2578   1.414       .  A
C2577      C2582   1.405       .  A
C2577      C2591   1.444       .  S
C2578      C2583   1.490       .  S
C2578      C2579   1.401       .  A
C2579      C2580   1.399       .  A
C2579      H2598   1.085       .  S
C2580      C2581   1.417       .  A
C2580      C2592   1.445       .  S
C2581      C2582   1.405       .  A
C2582      H2597   1.085       .  S
C2583      C2584   1.403       .  A
C2584      C2585   1.402       .  A
C2584      H2599   1.085       .  S
C2585      C2586   1.413       .  A
C2585      C2589   1.442       .  S
C2587      C2588   1.401   1_565  A
C2587      H2600   1.085       .  S
C2588      C2590   1.444   1_545  S
C2589      N2593   1.157       .  T
C2590      N2594   1.157       .  T
C2591      N2596   1.157       .  T
C2592      N2595   1.157       .  T
C2601      C2602   1.408       .  A
C2601      C2606   1.397       .  A
C2601      C2615   1.444       .  S
C2602      C2607   1.476       .  S
C2602      C2603   1.402       .  A
C2603      C2604   1.398       .  A
C2603      H2622   1.085       .  S
C2604      C2605   1.411       .  A
C2604      C2616   1.443       .  S
C2605      C2606   1.405       .  A
C2606      H2621   1.085       .  S
C2607      C2608   1.401       .  A
C2607      C2612   1.407       .  A
C2608      C2609   1.397       .  A
C2608      H2623   1.085       .  S
C2609      C2610   1.415       .  A
C2609      C2613   1.445       .  S
C2610      C2611   1.406       .  A
C2611      C2612   1.398       .  A
C2611      H2624   1.084       .  S
C2612      C2614   1.444       .  S
C2613      N2617   1.157       .  T
C2614      N2618   1.157       .  T
C2615      N2620   1.157       .  T
C2616      N2619   1.157       .  T
C2625      C2626   1.410       .  A
C2625      C2630   1.401       .  A
C2625      C2639   1.445       .  S
C2626      C2631   1.486       .  S
C2626      C2627   1.403       .  A
C2627      C2628   1.403       .  A
C2627      H2646   1.085       .  S
C2628      C2629   1.413       .  A
C2628      C2640   1.443       .  S
C2629      C2630   1.407       .  A
C2630      H2645   1.085       .  S
C2631      C2636   1.409       .  A
C2632      C2633   1.403       .  A
C2632      H2647   1.085       .  S
C2633      C2634   1.414       .  A
C2633      C2637   1.443       .  S
C2635      C2636   1.400       .  A
C2635      H2648   1.085       .  S
C2636      C2638   1.443       .  S
C2637      N2641   1.157       .  T
C2638      N2642   1.157       .  T
C2639      N2644   1.157       .  T
C2640      N2643   1.157       .  T
C2649      C2650   1.411       .  A
C2649      C2654   1.397       .  A
C2649      C2663   1.444       .  S
C2650      C2655   1.484       .  S
C2650      C2651   1.403       .  A
C2651      C2652   1.400       .  A
C2651      H2670   1.085       .  S
C2652      C2653   1.412       .  A
C2653      C2654   1.403       .  A
C2654      H2669   1.085       .  S
C2655      C2656   1.401       .  A
C2655      C2660   1.411       .  A
C2656      C2657   1.398       .  A
C2656      H2671   1.085       .  S
C2657      C2658   1.416       .  A
C2657      C2661   1.444       .  S
C2658      C2659   1.407       .  A
C2659      C2660   1.401       .  A
C2659      H2672   1.085       .  S
C2660      C2662   1.445       .  S
C2661      N2665   1.157       .  T
C2662      N2666   1.157       .  T
C2663      N2668   1.157       .  T
C2664      N2667   1.157       .  T
C2673      C2674   1.416       .  A
C2673      C2678   1.400       .  A
C2673      C2687   1.443       .  S
C2674      C2679   1.494       .  S
C2674      C2675   1.405       .  A
C2675      C2676   1.400   1_655  A
C2675      H2694   1.093       .  S
C2676      C2677   1.411   1_455  A
C2676      C2688   1.444       .  S
C2677      C2678   1.402       .  A
C2679      C2680   1.403       .  A
C2679      C2684   1.414       .  A
C2680      C2681   1.402       .  A
C2680      H2695   1.088       .  S
C2681      C2682   1.419       .  A
C2681      C2685   1.445       .  S
C2682      C2683   1.405       .  A
C2683      C2684   1.401       .  A
C2683      H2696   1.087       .  S
C2685      N2689   1.158       .  T
C2686      N2690   1.157       .  T
C2687      N2692   1.157       .  T
C2688      N2691   1.157       .  T
C2697      C2698   1.409       .  A
C2697      C2702   1.399       .  A
C2697      C2711   1.445       .  S
C2698      C2703   1.485       .  S
C2698      C2699   1.404       .  A
C2699      C2700   1.404       .  A
C2699      H2718   1.085       .  S
C2700      C2701   1.412       .  A
C2700      C2712   1.443       .  S
C2701      C2702   1.408       .  A
C2702      H2717   1.084       .  S
C2703      C2704   1.403       .  A
C2703      C2708   1.410       .  A
C2704      C2705   1.402       .  A
C2704      H2719   1.085       .  S
C2705      C2706   1.413       .  A
C2705      C2709   1.443   1_565  S
C2706      C2707   1.405       .  A
C2707      C2708   1.400       .  A
C2707      H2720   1.085       .  S
C2708      C2710   1.444       .  S
C2710      N2714   1.157       .  T
C2711      N2716   1.157       .  T
C2712      N2715   1.157       .  T
C2721      C2722   1.412       .  A
C2721      C2726   1.404       .  A
C2721      C2735   1.444       .  S
C2722      C2727   1.488       .  S
C2722      C2723   1.403       .  A
C2723      C2724   1.399       .  A
C2723      H2742   1.084       .  S
C2724      C2725   1.413       .  A
C2724      C2736   1.444       .  S
C2725      C2726   1.405       .  A
C2726      H2741   1.084       .  S
C2727      C2728   1.406       .  A
C2727      C2732   1.410       .  A
C2728      C2729   1.405       .  A
C2728      H2743   1.084       .  S
C2729      C2730   1.413       .  A
C2729      C2733   1.444       .  S
C2730      C2731   1.406       .  A
C2731      C2732   1.396       .  A
C2731      H2744   1.085       .  S
C2732      C2734   1.445       .  S
C2733      N2737   1.157       .  T
C2734      N2738   1.157       .  T
C2735      N2740   1.157       .  T
C2736      N2739   1.157       .  T
C2745      C2750   1.402       .  A
C2745      C2759   1.443       .  S
C2746      C2751   1.489       .  S
C2746      C2747   1.404       .  A
C2747      C2748   1.403       .  A
C2747      H2766   1.085       .  S
C2748      C2760   1.443       .  S
C2749      C2750   1.404       .  A
C2750      H2765   1.085       .  S
C2751      C2752   1.403       .  A
C2751      C2756   1.409       .  A
C2752      C2753   1.403       .  A
C2753      C2754   1.417       .  A
C2753      C2757   1.445   1_655  S
C2754      C2755   1.407       .  A
C2755      C2756   1.402       .  A
C2755      H2768   1.084       .  S
C2756      C2758   1.443       .  S
C2758      N2762   1.157       .  T
C2759      N2764   1.157       .  T
C2760      N2763   1.157       .  T
