geometry optimzed in LAMMPS
_audit_creation_date              2020-12-01 
_audit_creation_method            'lammps2cif' 
_symmetry_space_group_name_H-M    'P1' 
_symmetry_Int_Tables_number       1 
_symmetry_cell_setting            triclinic 
loop_ 
_symmetry_equiv_pos_as_xyz 
  x,y,z 
_cell_length_a                    23.37842502 
_cell_length_b                    23.3738544325769 
_cell_length_c                    23.3755131233859 
_cell_angle_alpha                 89.88978350272498 
_cell_angle_beta                  91.75970384251819 
_cell_angle_gamma                 89.88553734822332 
loop_ 
_atom_site_label 
_atom_site_type_symbol 
_atom_site_fract_x 
_atom_site_fract_y 
_atom_site_fract_z 
_atom_site_charge 
O1          O  0.43512878  0.08480721  0.29468791    -0.70300
O2          O  0.06463520  0.07762707  0.20349033    -0.70500
O3          O  0.04838835  0.07822315  0.31785676    -0.70400
O4          O  0.45225427  0.07985772  0.18242716    -0.70400
O5          O  0.44481333  0.17210808  0.18685762    -0.70300
O6          O  0.04232569  0.17046930  0.31790821    -0.70400
O7          O  0.06336868  0.17017895  0.20069723    -0.70300
O8          O  0.44292279  0.17631347  0.30503001    -0.70500
V9          V  0.99797975  0.07935990  0.24931797     1.35200
V10         V  0.50205608  0.17315417  0.24806676     1.35200
C11         C  0.41828384  0.13026569  0.31964344     0.78900
C12         C  0.08532747  0.12361035  0.18334281     0.79000
C13         C  0.06474853  0.12536909  0.34022070     0.78900
C14         C  0.42768595  0.12505189  0.16417734     0.78800
C15         C  0.38164017  0.12451816  0.37490062    -0.01000
O16         O  0.30474685  0.07079353  0.41943764    -0.70300
O17         O  0.20083310  0.43491253  0.42393204    -0.70500
O18         O  0.31708339  0.44351216  0.42601033    -0.70400
O19         O  0.18840882  0.06081046  0.42452174    -0.70400
O20         O  0.18246235  0.06092249  0.33193097    -0.70300
O21         O  0.31443237  0.44255350  0.33331112    -0.70400
O22         O  0.19712756  0.43388755  0.33122025    -0.70300
O23         O  0.30047379  0.07220281  0.32673673    -0.70500
V24         V  0.25215637  0.00759828  0.41956528     1.35200
V25         V  0.24687293  0.00904800  0.33077499     1.35200
C26         C  0.32411161  0.09049387  0.37272409     0.78900
C27         C  0.17868499  0.41414894  0.37774509     0.79000
C28         C  0.33655600  0.42315181  0.38016584     0.78900
C29         C  0.16399236  0.08018543  0.37911785     0.78800
O30         O  0.31674772  0.04871206  0.17313699    -0.70300
O31         O  0.17229705  0.45934518  0.16836947    -0.70500
O32         O  0.28922417  0.43642493  0.17282710    -0.70400
O33         O  0.19895821  0.05815388  0.18087508    -0.70400
O34         O  0.20287127  0.06545809  0.08885174    -0.70300
O35         O  0.29023418  0.43586828  0.08029100    -0.70400
O36         O  0.17566358  0.44668611  0.07686305    -0.70100
O37         O  0.31378086  0.04493814  0.08065305    -0.70500
V38         V  0.24084052  0.50422095  0.16652455     1.35200
V39         V  0.23863160  0.50039127  0.07787508     1.35200
C40         C  0.33569830  0.06736101  0.12551943     0.78900
C41         C  0.15380845  0.43256402  0.12380494     0.79000
C42         C  0.30915604  0.41457220  0.12783136     0.78900
C43         C  0.18146426  0.08323376  0.13527570     0.78800
C44         C  0.37255359  0.12387443  0.12460080    -0.01000
O45         O  0.41274162  0.30153768  0.07329031    -0.70300
O46         O  0.42670801  0.19161834  0.44534072    -0.70500
O47         O  0.42683135  0.30788590  0.45340125    -0.70400
O48         O  0.41959420  0.18723480  0.05422716    -0.70400
O49         O  0.32711570  0.18436507  0.04832527    -0.70300
O50         O  0.33469324  0.31371286  0.45670099    -0.70400
O51         O  0.33455773  0.19703635  0.43496283    -0.70300
O52         O  0.32024732  0.30167774  0.06489891    -0.70500
V53         V  0.41643502  0.25509855  0.00581044     1.35200
V54         V  0.32772670  0.25178049  0.00021259     1.35200
C55         C  0.36482471  0.32106168  0.08995944     0.78900
C56         C  0.38120413  0.17532126  0.41851609     0.79000
C57         C  0.38095866  0.33219012  0.43549784     0.78900
C58         C  0.37368696  0.16367073  0.07015283     0.78800
C59         C  0.37645194  0.36952699  0.37951292    -0.01000
C60         C  0.36380951  0.37511696  0.12872368    -0.01000
O61         O  0.05246887  0.32622649  0.19172411    -0.70300
O62         O  0.44801664  0.32677945  0.31744598    -0.70500
O63         O  0.42620482  0.32612400  0.20131000    -0.70400
O64         O  0.06092336  0.32450890  0.30925158    -0.70400
O65         O  0.06640959  0.41617607  0.29795785    -0.70300
O66         O  0.42476373  0.41873839  0.20369636    -0.70400
O67         O  0.44641410  0.41934691  0.31750124    -0.70300
O68         O  0.04398356  0.41838559  0.18506388    -0.70500
V69         V  0.49412940  0.32888246  0.25098793     1.35200
V70         V  0.49376065  0.41764779  0.25014247     1.35200
C71         C  0.06804283  0.37309002  0.16844362     0.78900
C72         C  0.42854727  0.37268578  0.33891936     0.79000
C73         C  0.40339635  0.37254162  0.18346638     0.78900
C74         C  0.08531515  0.37101289  0.32356130     0.78800
C75         C  0.12090054  0.13176213  0.37914677    -0.01000
C76         C  0.12321846  0.37736618  0.37991767    -0.01000
C77         C  0.12212034  0.37448479  0.13161890    -0.01000
C78         C  0.12551627  0.12043291  0.13102056    -0.01000
O79         O  0.16923163  0.31122155  0.06248739    -0.70300
O80         O  0.16723992  0.19021952  0.45553565    -0.70500
O81         O  0.17044588  0.30763006  0.44721709    -0.70400
O82         O  0.17234813  0.19402754  0.07164883    -0.70400
O83         O  0.07965367  0.19378585  0.06899293    -0.70300
O84         O  0.07785044  0.30616113  0.44294226    -0.70400
O85         O  0.07466374  0.19010516  0.45504645    -0.70300
O86         O  0.07659817  0.30949674  0.06007632    -0.70500
V87         V  0.16905216  0.24844364  0.00890804     1.35200
V88         V  0.08013314  0.24730326  0.00602983     1.35200
C89         C  0.12234759  0.33135244  0.08076452     0.78900
C90         C  0.12026702  0.16956202  0.43488184     0.79000
C91         C  0.12431520  0.32615547  0.42351207     0.78900
C92         C  0.12635348  0.17402388  0.09110648     0.78800
C93         C  0.46318022  0.46834805  0.03293313     0.88000
C94         C  0.52377010  0.44688381  0.03656466    -0.52300
C95         C  0.00965994  0.48304139  0.43822928     0.10900
C96         C  0.03199215  0.02782184  0.47552395     0.21800
C97         C  0.46467788  0.53005549  0.05044971    -0.53000
C98         C  0.05922378  0.00491871  0.02782002     0.11000
C99         C  0.44574180  0.46742380  0.97062220    -0.52500
C100        C  0.47977044  0.00140333  0.43807150     0.11600
H101        H  0.53290272  0.40403847  0.05116622     0.16100
H102        H  0.06202966  0.05515130  0.45174580     0.01800
H103        H  0.52859137  0.94726181  0.09506342     0.16400
H104        H  0.40420803  0.04557336  0.03529962     0.16200
C105        C  0.27234043  0.21718392  0.21955580     0.88000
C106        C  0.21059941  0.20034007  0.22559914    -0.52300
C107        C  0.18423056  0.23366815  0.26409500     0.10900
C108        C  0.22020875  0.28278134  0.28694079     0.21800
C109        C  0.27243750  0.27868418  0.20007161    -0.53000
C110        C  0.24162350  0.31261551  0.23421000     0.11000
C111        C  0.29868068  0.21670277  0.27914143    -0.52500
C112        C  0.27290747  0.25430343  0.31355039     0.11600
H113        H  0.19675432  0.15720466  0.21711693     0.16100
H114        H  0.19747751  0.31137692  0.31653315     0.01800
H115        H  0.27939734  0.28949965  0.15598372     0.16400
H116        H  0.34189704  0.20219244  0.28720646     0.16200
C117        C  0.08401288  0.04291299  0.06542247    -0.11800
C118        C  0.09472129  0.08167970  0.09544059    -0.13400
C119        C  0.20046344  0.34297759  0.20425817    -0.11800
C120        C  0.16238375  0.35075131  0.17139472    -0.13400
C121        C  0.08759126  0.41741044  0.40660959    -0.11800
C122        C  0.05167284  0.45135627  0.41383342    -0.13400
C123        C  0.14866314  0.17119996  0.34327197    -0.11800
C124        C  0.15821086  0.20341991  0.30634470    -0.13400
C125        C  0.42715229  0.43703474  0.06625363    -0.11800
C126        C  0.39806791  0.41017920  0.09509233    -0.13400
C127        C  0.34051564  0.33092535  0.34897921    -0.11800
C128        C  0.31000492  0.29248006  0.33862856    -0.13400
C129        C  0.30262718  0.18272653  0.18334718    -0.11800
C130        C  0.33537891  0.15726186  0.15701993    -0.13400
C131        C  0.41678117  0.08190088  0.40189268    -0.11800
C132        C  0.44580636  0.04105542  0.40926909    -0.13400
O133        O  0.44272293  0.08236081  0.80743558    -0.70300
O134        O  0.06090198  0.07576750  0.70037646    -0.70500
O135        O  0.05580978  0.07484609  0.81622592    -0.70400
O136        O  0.44678444  0.07628106  0.69193515    -0.70400
O137        O  0.44560540  0.16887588  0.68930530    -0.70300
O138        O  0.04309521  0.16632426  0.82151679    -0.70400
O139        O  0.06390850  0.16824076  0.70502020    -0.70300
O140        O  0.44342107  0.17499980  0.80637222    -0.70500
V141        V  0.99923207  0.07578539  0.75348716     1.35200
V142        V  0.50282991  0.17091045  0.75107371     1.35200
C143        C  0.42259827  0.12949688  0.82647773     0.78900
C144        C  0.08302595  0.12267368  0.68316185     0.79000
C145        C  0.06961585  0.12165893  0.84032466     0.78900
C146        C  0.42526389  0.12132736  0.67023530     0.78800
C147        C  0.38385206  0.13006694  0.87978511    -0.01000
O148        O  0.31277090  0.06597294  0.92396500    -0.70300
O149        O  0.20057931  0.43739263  0.92544383    -0.70500
O150        O  0.31226545  0.44968951  0.92262060    -0.70400
O151        O  0.19515312  0.06044049  0.92394607    -0.70400
O152        O  0.19042679  0.05932129  0.83134844    -0.70300
O153        O  0.30555373  0.44541390  0.83018921    -0.70400
O154        O  0.18926041  0.43771278  0.83319983    -0.70300
O155        O  0.30817184  0.07117548  0.83146661    -0.70500
V156        V  0.25687264  0.00474120  0.92104035     1.35200
V157        V  0.25528877  0.00749448  0.83229811     1.35200
C158        C  0.33106626  0.08871633  0.87808543     0.78900
C159        C  0.17592997  0.41609024  0.88074736     0.79000
C160        C  0.32942184  0.42775077  0.87675675     0.78900
C161        C  0.17101282  0.07890676  0.87798030     0.78800
O162        O  0.31165058  0.04532345  0.67300700    -0.70300
O163        O  0.18269746  0.45943136  0.67299403    -0.70500
O164        O  0.29939036  0.43657982  0.67248271    -0.70400
O165        O  0.19331688  0.05825456  0.67540963    -0.70400
O166        O  0.19165547  0.06038753  0.58285665    -0.70300
O167        O  0.29448902  0.43406758  0.57992721    -0.70400
O168        O  0.18030513  0.45095962  0.58079558    -0.70100
O169        O  0.30819634  0.04693066  0.58042823    -0.70500
V170        V  0.25108534  0.50428255  0.66903447     1.35200
V171        V  0.24610326  0.50121627  0.58026770     1.35200
C172        C  0.33169036  0.06543289  0.62660968     0.78900
C173        C  0.16035701  0.43568833  0.62828601     0.79000
C174        C  0.31591096  0.41337740  0.62668805     0.78900
C175        C  0.17274833  0.08052024  0.62943172     0.78800
C176        C  0.37112930  0.12029308  0.62888099    -0.01000
O177        O  0.41947572  0.29873662  0.57118328    -0.70300
O178        O  0.42115879  0.21044315  0.93745973    -0.70500
O179        O  0.41970996  0.32211668  0.95727259    -0.70400
O180        O  0.42252040  0.18257745  0.56214119    -0.70400
O181        O  0.33055289  0.17780387  0.54901981    -0.70300
O182        O  0.32711309  0.31910979  0.95347871    -0.70400
O183        O  0.32902274  0.20176469  0.93423641    -0.70300
O184        O  0.32699989  0.29510887  0.56767379    -0.70500
V185        V  0.42228425  0.24533672  0.50814390     1.35200
V186        V  0.33364007  0.24552904  0.50209190     1.35200
C187        C  0.37177110  0.31759298  0.58962604     0.78900
C188        C  0.37673453  0.18663595  0.91467618     0.79000
C189        C  0.37337511  0.34109340  0.93516989     0.78900
C190        C  0.37573884  0.15872061  0.57470387     0.78800
C191        C  0.37022340  0.37545964  0.87764560    -0.01000
C192        C  0.37055712  0.37414371  0.62612535    -0.01000
O193        O  0.05358629  0.33162172  0.69480061    -0.70300
O194        O  0.44823616  0.33391820  0.82296219    -0.70500
O195        O  0.42754064  0.33044043  0.70623187    -0.70400
O196        O  0.06103292  0.33083382  0.81283820    -0.70400
O197        O  0.05857555  0.42346986  0.81230260    -0.70300
O198        O  0.43248005  0.42265039  0.69846175    -0.70400
O199        O  0.43789318  0.42570758  0.81500898    -0.70300
O200        O  0.05268458  0.42422667  0.69522110    -0.70500
V201        V  0.49465973  0.33498165  0.75636993     1.35200
V202        V  0.49386196  0.42357524  0.75549146     1.35200
C203        C  0.07266060  0.37859915  0.67442341     0.78900
C204        C  0.42370681  0.37953900  0.83967441     0.79000
C205        C  0.40963309  0.37559565  0.68147738     0.78900
C206        C  0.07988361  0.37733441  0.83366944     0.78800
C207        C  0.12635397  0.12919298  0.87743335    -0.01000
C208        C  0.12158555  0.37841342  0.88709737    -0.01000
C209        C  0.12557771  0.37902851  0.63500674    -0.01000
C210        C  0.12034253  0.12297302  0.62861389    -0.01000
O211        O  0.16997442  0.31511933  0.56414443    -0.70300
O212        O  0.17062805  0.18583965  0.95533795    -0.70500
O213        O  0.17138130  0.30331370  0.94634889    -0.70400
O214        O  0.17110391  0.19716878  0.57184300    -0.70400
O215        O  0.07892673  0.20430475  0.57345228    -0.70300
O216        O  0.07874779  0.30081931  0.94288779    -0.70400
O217        O  0.07790353  0.18501569  0.95175460    -0.70300
O218        O  0.07739906  0.31865393  0.56036859    -0.70500
V219        V  0.16789287  0.25278159  0.50971459     1.35200
V220        V  0.07911486  0.25459807  0.50797394     1.35200
C221        C  0.12387782  0.33747140  0.58240416     0.78900
C222        C  0.12435264  0.16534136  0.93316345     0.79000
C223        C  0.12486583  0.32246163  0.92415441     0.78900
C224        C  0.12482713  0.18017920  0.59320725     0.78800
C225        C  0.46562475  0.46826036  0.52669006     0.88000
C226        C  0.47044894  0.45069725  0.46502217    -0.52300
C227        C  0.05852293  0.48060291  0.00158852     0.10900
C228        C  0.03293349  0.03391257  0.97533287     0.21800
C229        C  0.52560071  0.46755053  0.55207083    -0.53000
C230        C  0.00340311  0.05807615  0.52439406     0.11000
C231        C  0.44660542  0.52990740  0.52642620    -0.52500
C232        C  0.48392678  0.06438922  0.99779447     0.11600
H233        H  0.46078632  0.40769093  0.45160226     0.16100
H234        H  0.06255027  0.06298019  0.95317346     0.01800
H235        H  0.44601581  0.04364812  0.58916636     0.16400
H236        H  0.40955762  0.94608482  0.45489920     0.16200
C237        C  0.27258216  0.21609893  0.72112427     0.88000
C238        C  0.21027292  0.20093230  0.72555205    -0.52300
C239        C  0.18403946  0.23483040  0.76363754     0.10900
C240        C  0.22077378  0.28336947  0.78684007     0.21800
C241        C  0.27478893  0.27731118  0.70107639    -0.53000
C242        C  0.24408101  0.31211340  0.73430279     0.11000
C243        C  0.29788628  0.21534298  0.78126594    -0.52500
C244        C  0.27268544  0.25435180  0.81457702     0.11600
H245        H  0.19487547  0.15859242  0.71480733     0.16100
H246        H  0.19802834  0.31292707  0.81566897     0.01800
H247        H  0.28376230  0.28795020  0.65736225     0.16400
H248        H  0.34051894  0.19931578  0.79037669     0.16200
C249        C  0.04125692  0.08584099  0.56042865    -0.11800
C250        C  0.08059905  0.09572910  0.59098418    -0.13400
C251        C  0.20423705  0.34290298  0.70376552    -0.11800
C252        C  0.16537013  0.35207164  0.67250622    -0.13400
C253        C  0.09383425  0.41368496  0.92679057    -0.11800
C254        C  0.08623117  0.44437882  0.96552907    -0.13400
C255        C  0.15148098  0.17027513  0.84165908    -0.11800
C256        C  0.15808580  0.20442007  0.80569857    -0.13400
C257        C  0.42967576  0.43410065  0.55753078    -0.11800
C258        C  0.40317448  0.40771113  0.58934996    -0.13400
C259        C  0.33774380  0.33447143  0.84655967    -0.11800
C260        C  0.31022760  0.29350946  0.83750736    -0.13400
C261        C  0.30215685  0.18072785  0.68583129    -0.11800
C262        C  0.33427940  0.15455120  0.65983993    -0.13400
C263        C  0.42256190  0.10357200  0.91887024    -0.11800
C264        C  0.45579658  0.09574288  0.95654838    -0.13400
O265        O  0.43703430  0.57593284  0.30520488    -0.70300
O266        O  0.06267877  0.58261516  0.19540106    -0.70500
O267        O  0.05928411  0.58062479  0.31184287    -0.70400
O268        O  0.44089339  0.57295708  0.18939191    -0.70400
O269        O  0.44897249  0.66481856  0.18146946    -0.70300
O270        O  0.05807641  0.67326354  0.31066605    -0.70400
O271        O  0.05928106  0.67523059  0.19366797    -0.70300
O272        O  0.43034686  0.66813832  0.29719280    -0.70500
V273        V  0.00214712  0.58195405  0.25043910     1.35200
V274        V  0.49662298  0.66498974  0.25030891     1.35200
C275        C  0.41368740  0.62267001  0.32094055     0.78900
C276        C  0.08049667  0.62974514  0.17408834     0.79000
C277        C  0.07969360  0.62701395  0.33148754     0.78900
C278        C  0.42533093  0.61856579  0.16355229     0.78800
C279        C  0.37692102  0.62368262  0.37500290    -0.01000
O280        O  0.30750972  0.56076502  0.42212077    -0.70300
O281        O  0.20235131  0.94260211  0.42134616    -0.70500
O282        O  0.31434781  0.95379826  0.42059423    -0.70400
O283        O  0.19147740  0.55254849  0.42376842    -0.70400
O284        O  0.18869940  0.54992904  0.33112492    -0.70300
O285        O  0.31127036  0.95870069  0.32815572    -0.70400
O286        O  0.19375530  0.94442578  0.32905859    -0.70300
O287        O  0.30576754  0.55824002  0.32950118    -0.70500
V288        V  0.25416235  0.49777974  0.42211489     1.35200
V289        V  0.25158903  0.49614948  0.33319957     1.35200
C290        C  0.32605610  0.58056234  0.37520365     0.78900
C291        C  0.17895875  0.92155395  0.37582521     0.79000
C292        C  0.33259003  0.93547607  0.37367479     0.78900
C293        C  0.16978113  0.57177334  0.37703976     0.78800
O294        O  0.30943908  0.54983500  0.16639187    -0.70300
O295        O  0.19067155  0.94184475  0.17972021    -0.70500
O296        O  0.30719261  0.93267472  0.17530454    -0.70400
O297        O  0.19271722  0.57167901  0.16616998    -0.70400
O298        O  0.18540093  0.56416062  0.07395625    -0.70300
O299        O  0.29236746  0.92784082  0.08353463    -0.70400
O300        O  0.17932935  0.94918140  0.08775882    -0.70100
O301        O  0.30295758  0.55305838  0.07388598    -0.70500
V302        V  0.25347741  0.99553512  0.17571454     1.35200
V303        V  0.24712671  0.99652510  0.08711392     1.35200
C304        C  0.32879189  0.56950032  0.11971486     0.78900
C305        C  0.16352755  0.92638232  0.13409606     0.79000
C306        C  0.31872552  0.90865543  0.12833501     0.78900
C307        C  0.16902018  0.58870672  0.11958752     0.78800
C308        C  0.37155469  0.62125237  0.12159569    -0.01000
O309        O  0.41836358  0.79705016  0.06290041    -0.70300
O310        O  0.41434668  0.70806623  0.42534087    -0.70500
O311        O  0.41375020  0.82006874  0.44623625    -0.70400
O312        O  0.42126160  0.68165949  0.05112234    -0.70400
O313        O  0.32869487  0.67995216  0.04413761    -0.70300
O314        O  0.32148396  0.81333345  0.43852045    -0.70400
O315        O  0.32279549  0.69595643  0.42903032    -0.70300
O316        O  0.32577769  0.79725290  0.05941454    -0.70500
V317        V  0.41858931  0.74552586  0.99808663     1.35200
V318        V  0.32974924  0.74538543  0.99415958     1.35200
C319        C  0.37169121  0.81647331  0.08288088     0.78900
C320        C  0.36952961  0.68163969  0.40693706     0.79000
C321        C  0.36744249  0.83734083  0.42227256     0.78900
C322        C  0.37480948  0.65956771  0.06706512     0.78800
C323        C  0.36703037  0.87851471  0.36934258    -0.01000
C324        C  0.37328045  0.87110660  0.12259005    -0.01000
O325        O  0.04090838  0.83501755  0.18807688    -0.70300
O326        O  0.44390754  0.83221286  0.31600732    -0.70500
O327        O  0.43671814  0.82702020  0.19819950    -0.70400
O328        O  0.06421200  0.83491618  0.30541239    -0.70400
O329        O  0.05489047  0.92677679  0.31242681    -0.70300
O330        O  0.43524297  0.91959801  0.19612322    -0.70400
O331        O  0.44111586  0.92483466  0.31275852    -0.70300
O332        O  0.05100576  0.92653574  0.19596591    -0.70500
V333        V  0.49817280  0.83245562  0.25506486     1.35200
V334        V  0.49670194  0.92132949  0.25376750     1.35200
C335        C  0.06551676  0.88060195  0.17108721     0.78900
C336        C  0.42231898  0.87903176  0.33406456     0.79000
C337        C  0.41556552  0.87214939  0.17618607     0.78900
C338        C  0.08094509  0.88127534  0.32889443     0.78800
C339        C  0.13302909  0.62789045  0.37346322    -0.01000
C340        C  0.12459534  0.88205274  0.38102911    -0.01000
C341        C  0.12030459  0.87536695  0.13380230    -0.01000
C342        C  0.11600442  0.62998774  0.11869212    -0.01000
O343        O  0.16500170  0.82309290  0.05606582    -0.70300
O344        O  0.17176766  0.68568178  0.45313758    -0.70500
O345        O  0.17290929  0.80431811  0.43863503    -0.70400
O346        O  0.16690518  0.70591026  0.06573024    -0.70400
O347        O  0.07449809  0.71018734  0.06246814    -0.70300
O348        O  0.08025076  0.80368037  0.43429771    -0.70400
O349        O  0.07957933  0.68738291  0.44136529    -0.70300
O350        O  0.07231264  0.82379368  0.05195362    -0.70500
V351        V  0.16565023  0.75992590  0.00343886     1.35200
V352        V  0.07689734  0.76087733  0.99806513     1.35200
C353        C  0.11817008  0.84224596  0.07570169     0.78900
C354        C  0.12687442  0.66522065  0.42807635     0.79000
C355        C  0.12702876  0.82491472  0.41650237     0.78900
C356        C  0.12010474  0.68722208  0.08403796     0.78800
C357        C  0.46310428  0.96950201  0.02510281     0.88000
C358        C  0.46890460  0.95419857  0.96293623    -0.52300
C359        C  0.05963050  0.97487882  0.50287342     0.10900
C360        C  0.03297070  0.53161193  0.47478410     0.21800
C361        C  0.52219736  0.96440430  0.05250602    -0.53000
C362        C  0.99908059  0.56335907  0.01620516     0.11000
C363        C  0.44744479  0.03194789  0.02750456    -0.52500
C364        C  0.48038424  0.56312205  0.49445556     0.11600
H365        H  0.45537686  0.91302484  0.94662304     0.16100
H366        H  0.06319493  0.56005258  0.45240781     0.01800
H367        H  0.45048501  0.54258522  0.09175160     0.16400
H368        H  0.40387904  0.45339448  0.95750916     0.16200
C369        C  0.27923838  0.72009090  0.21674381     0.88000
C370        C  0.28486174  0.70174262  0.27839504    -0.52300
C371        C  0.24795603  0.73045121  0.31115627     0.10900
C372        C  0.21693233  0.77962112  0.28017950     0.21800
C373        C  0.21672462  0.71549265  0.20007572    -0.53000
C374        C  0.18428279  0.75151706  0.23034040     0.11000
C375        C  0.29446996  0.78248035  0.21469119    -0.52500
C376        C  0.26417950  0.81324241  0.25199752     0.11600
H377        H  0.30217438  0.66017975  0.28991859     0.16100
H378        H  0.18961373  0.80587551  0.30809958     0.01800
H379        H  0.20315553  0.69680958  0.16015090     0.16400
H380        H  0.33503606  0.79624142  0.19892835     0.16200
C381        C  0.03748879  0.59387142  0.04929642    -0.11800
C382        C  0.07603732  0.60272834  0.08131941    -0.13400
C383        C  0.15530161  0.79079775  0.19610345    -0.11800
C384        C  0.14763387  0.83215145  0.16789518    -0.13400
C385        C  0.09697703  0.91541298  0.42276332    -0.11800
C386        C  0.08822505  0.94204130  0.46422003    -0.13400
C387        C  0.17282902  0.66331485  0.34592811    -0.11800
C388        C  0.21133243  0.69440883  0.33851622    -0.13400
C389        C  0.42509773  0.93567514  0.05305537    -0.11800
C390        C  0.40213281  0.90676590  0.08526239    -0.13400
C391        C  0.33007088  0.85124775  0.32903057    -0.11800
C392        C  0.29822756  0.84276991  0.29028331    -0.13400
C393        C  0.31245145  0.68799719  0.18204843    -0.11800
C394        C  0.33906436  0.65823783  0.15400471    -0.13400
C395        C  0.41669352  0.59964865  0.41505846    -0.11800
C396        C  0.44986603  0.59248880  0.45299491    -0.13400
O397        O  0.43050768  0.57934023  0.79245638    -0.70300
O398        O  0.06968231  0.58397325  0.70171794    -0.70500
O399        O  0.05288978  0.58511608  0.81572925    -0.70400
O400        O  0.44771342  0.57651774  0.67966079    -0.70400
O401        O  0.44903429  0.66915093  0.67816516    -0.70300
O402        O  0.05850378  0.67715636  0.80713782    -0.70400
O403        O  0.06014026  0.67542434  0.68970331    -0.70300
O404        O  0.43041083  0.67182356  0.79509603    -0.70500
V405        V  0.00293969  0.58475947  0.74781107     1.35200
V406        V  0.49654779  0.66866678  0.74656035     1.35200
C407        C  0.41016909  0.62520123  0.81373650     0.78900
C408        C  0.08565030  0.62940110  0.67639884     0.79000
C409        C  0.07569205  0.63170169  0.83279756     0.78900
C410        C  0.42909809  0.62269649  0.65700784     0.78800
C411        C  0.37611620  0.62062984  0.87041392    -0.01000
O412        O  0.30160479  0.56614289  0.91834072    -0.70300
O413        O  0.20151967  0.94308891  0.91953818    -0.70500
O414        O  0.31797080  0.94811835  0.92379503    -0.70400
O415        O  0.18617567  0.55608555  0.92532258    -0.70400
O416        O  0.18135058  0.55412779  0.83269490    -0.70300
O417        O  0.32055695  0.95699820  0.83179527    -0.70400
O418        O  0.20187099  0.94327223  0.82700068    -0.70300
O419        O  0.29907179  0.56062087  0.82585402    -0.70500
V420        V  0.24978116  0.50242270  0.92101098     1.35200
V421        V  0.24373020  0.49974220  0.83223977     1.35200
C422        C  0.32086752  0.58329008  0.87074094     0.78900
C423        C  0.18107467  0.92267763  0.87232409     0.79000
C424        C  0.33955019  0.93178158  0.87740614     0.78900
C425        C  0.16367345  0.57597137  0.87929522     0.78800
O426        O  0.31866874  0.55078027  0.66598157    -0.70300
O427        O  0.18243042  0.94230315  0.67397268    -0.70500
O428        O  0.29915267  0.93017657  0.67465087    -0.70400
O429        O  0.20272370  0.57126553  0.67222518    -0.70400
O430        O  0.19900767  0.56829862  0.57957330    -0.70300
O431        O  0.29266266  0.92965857  0.58203223    -0.70400
O432        O  0.17826202  0.94348353  0.58132441    -0.70100
O433        O  0.31070947  0.55129702  0.57344751    -0.70500
V434        V  0.24648404  0.99425859  0.67242251     1.35200
V435        V  0.24286258  0.99515467  0.58356899     1.35200
C436        C  0.33561098  0.57046329  0.61822113     0.78900
C437        C  0.15948788  0.92318128  0.62753851     0.79000
C438        C  0.31524849  0.90863095  0.62802815     0.78900
C439        C  0.18076031  0.59027474  0.62588813     0.78800
C440        C  0.37425847  0.62462320  0.61739633    -0.01000
O441        O  0.41356050  0.79786756  0.56292690    -0.70300
O442        O  0.42112874  0.69320202  0.93424979    -0.70500
O443        O  0.42097765  0.80938081  0.94471379    -0.70400
O444        O  0.41874707  0.68471357  0.54228201    -0.70400
O445        O  0.32622627  0.68542296  0.54364708    -0.70300
O446        O  0.32841014  0.81055336  0.94292861    -0.70400
O447        O  0.32850654  0.69361748  0.92955999    -0.70300
O448        O  0.32112410  0.80250677  0.55609509    -0.70500
V449        V  0.41319075  0.75257769  0.49411515     1.35200
V450        V  0.32451385  0.74974388  0.49188812     1.35200
C451        C  0.36709300  0.81815923  0.58215207     0.78900
C452        C  0.37502309  0.67362981  0.91106629     0.79000
C453        C  0.37479207  0.83122804  0.92416882     0.78900
C454        C  0.37356682  0.66367463  0.56253905     0.78800
C455        C  0.37367913  0.87399242  0.87206791    -0.01000
C456        C  0.36950072  0.87001758  0.62465208    -0.01000
O457        O  0.03975052  0.83010903  0.68128641    -0.70300
O458        O  0.44475270  0.82611962  0.81210444    -0.70500
O459        O  0.43745741  0.82210662  0.69414482    -0.70400
O460        O  0.06530146  0.83078607  0.79881597    -0.70400
O461        O  0.06262049  0.92308118  0.79449100    -0.70300
O462        O  0.42946282  0.91402014  0.70171058    -0.70400
O463        O  0.45070907  0.91848861  0.81598988    -0.70300
O464        O  0.04369053  0.92254402  0.68196091    -0.70500
V465        V  0.49914274  0.82589447  0.75138595     1.35200
V466        V  0.49816174  0.91450733  0.74956409     1.35200
C467        C  0.06169788  0.87578733  0.66143823     0.78900
C468        C  0.42797677  0.87309944  0.83443533     0.79000
C469        C  0.41160486  0.86761558  0.67831500     0.78900
C470        C  0.08622603  0.87827166  0.81618257     0.78800
C471        C  0.12788747  0.63301878  0.87634709    -0.01000
C472        C  0.12517466  0.88474009  0.87248676    -0.01000
C473        C  0.11855950  0.87048889  0.62812705    -0.01000
C474        C  0.12346788  0.62475733  0.62287475    -0.01000
O475        O  0.16633871  0.81487442  0.55404476    -0.70300
O476        O  0.16792916  0.69496572  0.95343372    -0.70500
O477        O  0.17047316  0.81339839  0.93978631    -0.70400
O478        O  0.16919939  0.69839486  0.56503126    -0.70400
O479        O  0.07675189  0.69447401  0.55771687    -0.70300
O480        O  0.07791819  0.81323554  0.93375862    -0.70400
O481        O  0.07567094  0.69626511  0.94480393    -0.70300
O482        O  0.07389090  0.80962825  0.55194537    -0.70500
V483        V  0.16816498  0.75087052  0.50233002     1.35200
V484        V  0.07938276  0.74904605  0.49628512     1.35200
C485        C  0.11890882  0.83245657  0.57329669     0.78900
C486        C  0.12254667  0.67340129  0.93022966     0.79000
C487        C  0.12507258  0.83284174  0.91542281     0.78900
C488        C  0.12308374  0.67670844  0.58187529     0.78800
C489        C  0.46480863  0.96839781  0.53225647     0.88000
C490        C  0.52642943  0.95014060  0.53855877    -0.52300
C491        C  0.01043651  0.98526182  0.93844815     0.10900
C492        C  0.02712846  0.52883978  0.96959361     0.21800
C493        C  0.46238299  0.03050606  0.54855716    -0.53000
C494        C  0.05844404  0.50275381  0.52783138     0.11000
C495        C  0.44912180  0.96475160  0.46944446    -0.52500
C496        C  0.47772934  0.50272858  0.93901462     0.11600
H497        H  0.53771370  0.90843920  0.55554029     0.16100
H498        H  0.05478342  0.55461725  0.94153244     0.01800
H499        H  0.53421821  0.45351944  0.59539146     0.16400
H500        H  0.40273030  0.54108634  0.53386111     0.16200
C501        C  0.27884551  0.71887851  0.71615758     0.88000
C502        C  0.28330841  0.69783448  0.77685896    -0.52300
C503        C  0.24840189  0.72724681  0.81122363     0.10900
C504        C  0.21946772  0.77876590  0.78245774     0.21800
C505        C  0.21626515  0.71816976  0.69962710    -0.53000
C506        C  0.18550257  0.75397390  0.73189362     0.11000
C507        C  0.29698067  0.78046965  0.71721816    -0.52500
C508        C  0.26783889  0.81128499  0.75543279     0.11600
H509        H  0.29814323  0.65513948  0.78603678     0.16100
H510        H  0.19346109  0.80502322  0.81156483     0.01800
H511        H  0.20215714  0.70367808  0.65833565     0.16400
H512        H  0.33839310  0.79243985  0.70279852     0.16200
C513        C  0.08195683  0.54180129  0.56510709    -0.11800
C514        C  0.09199618  0.58352145  0.59109951    -0.13400
C515        C  0.15640376  0.79444545  0.69933373    -0.11800
C516        C  0.14691877  0.83224358  0.66708044    -0.13400
C517        C  0.08926899  0.92402194  0.90046501    -0.11800
C518        C  0.05244026  0.95592999  0.91115727    -0.13400
C519        C  0.16938990  0.66605717  0.84818008    -0.11800
C520        C  0.21046400  0.69308508  0.83914848    -0.13400
C521        C  0.42977460  0.93578942  0.56449848    -0.11800
C522        C  0.40191198  0.90642878  0.59165423    -0.13400
C523        C  0.33462886  0.84802938  0.83276861    -0.11800
C524        C  0.30237521  0.83953251  0.79437798    -0.13400
C525        C  0.31134635  0.68696131  0.67990091    -0.11800
C526        C  0.34028002  0.65964220  0.65133499    -0.13400
C527        C  0.41430774  0.58207706  0.89952868    -0.11800
C528        C  0.44531032  0.54337925  0.90978220    -0.13400
O529        O  0.93074196  0.07842568  0.29378870    -0.70300
O530        O  0.56917822  0.08255058  0.20348629    -0.70500
O531        O  0.55268121  0.08395235  0.31749853    -0.70400
O532        O  0.94846984  0.07578290  0.18135437    -0.70400
O533        O  0.94924824  0.16844188  0.18003877    -0.70300
O534        O  0.55925750  0.17595095  0.30923107    -0.70400
O535        O  0.56151719  0.17420087  0.19188427    -0.70300
O536        O  0.93030156  0.17095220  0.29665305    -0.70500
V537        V  0.50247701  0.08459981  0.24967499     1.35200
V538        V  0.99652744  0.16813865  0.24856446     1.35200
C539        C  0.91027551  0.12422384  0.31507033     0.78900
C540        C  0.58613087  0.12774266  0.17837912     0.79000
C541        C  0.57608118  0.13022583  0.33462141     0.78900
C542        C  0.92957048  0.12189690  0.15883050     0.78800
C543        C  0.87687846  0.11947906  0.37183307    -0.01000
O544        O  0.80305108  0.06344238  0.41927093    -0.70300
O545        O  0.69920540  0.44068236  0.42065380    -0.70500
O546        O  0.81565156  0.44588245  0.42428027    -0.70400
O547        O  0.68730829  0.05372725  0.42559130    -0.70400
O548        O  0.68354885  0.05401182  0.33293376    -0.70300
O549        O  0.81857384  0.45441099  0.33228192    -0.70400
O550        O  0.70011192  0.43880374  0.32815014    -0.70300
O551        O  0.80122796  0.05839282  0.32673839    -0.70500
V552        V  0.75085546  0.99992546  0.42090187     1.35200
V553        V  0.74486060  0.99837041  0.33210257     1.35200
C554        C  0.82255609  0.08091747  0.37193857     0.78900
C555        C  0.67920594  0.41911149  0.37379959     0.79000
C556        C  0.83766967  0.42964780  0.37808730     0.78900
C557        C  0.66528996  0.07470529  0.37978405     0.78800
O558        O  0.81993524  0.04840233  0.16726422    -0.70300
O559        O  0.68105503  0.44188468  0.17398949    -0.70500
O560        O  0.79810408  0.43091321  0.17462771    -0.70400
O561        O  0.70379539  0.06912926  0.17393749    -0.70400
O562        O  0.69998448  0.06708513  0.08128034    -0.70300
O563        O  0.79135036  0.42864353  0.08204493    -0.70400
O564        O  0.67644749  0.44209814  0.08137169    -0.70100
O565        O  0.81149801  0.05015434  0.07480189    -0.70500
V566        V  0.74484222  0.49445648  0.17149682     1.35200
V567        V  0.74110920  0.49394952  0.08265200     1.35200
C568        C  0.83652952  0.06889402  0.11970012     0.78900
C569        C  0.65778468  0.42225280  0.12789156     0.79000
C570        C  0.81434930  0.40875018  0.12835835     0.78900
C571        C  0.68168118  0.08858308  0.12777544     0.78800
C572        C  0.87456690  0.12360534  0.11950325    -0.01000
O573        O  0.91357979  0.29829888  0.06425700    -0.70300
O574        O  0.92094267  0.19294725  0.43468426    -0.70500
O575        O  0.92017514  0.30854823  0.44617544    -0.70400
O576        O  0.91868363  0.18450625  0.04452755    -0.70400
O577        O  0.82622629  0.18557402  0.04649776    -0.70300
O578        O  0.82760830  0.30847708  0.44380165    -0.70400
O579        O  0.82830259  0.19153980  0.43119951    -0.70300
O580        O  0.82116509  0.30289764  0.05707806    -0.70500
V581        V  0.91320448  0.25217963  0.99584233     1.35200
V582        V  0.82457371  0.24924166  0.99360739     1.35200
C583        C  0.86706787  0.31885700  0.08308839     0.78900
C584        C  0.87493904  0.17256723  0.41208128     0.79000
C585        C  0.87383772  0.32969372  0.42524151     0.78900
C586        C  0.87356218  0.16356166  0.06510080     0.78800
C587        C  0.87264183  0.37238778  0.37307519    -0.01000
C588        C  0.86909988  0.37078500  0.12558284    -0.01000
O589        O  0.53907976  0.32809411  0.18394806    -0.70300
O590        O  0.94462861  0.32565693  0.31348459    -0.70500
O591        O  0.93649235  0.32264693  0.19548193    -0.70400
O592        O  0.56243882  0.32724700  0.30170144    -0.70400
O593        O  0.56341188  0.41946756  0.29529933    -0.70300
O594        O  0.92821921  0.41447349  0.20353990    -0.70400
O595        O  0.94962296  0.41806355  0.31779807    -0.70300
O596        O  0.54148518  0.42058706  0.18338549    -0.70500
V597        V  0.99852325  0.32629856  0.25240191     1.35200
V598        V  0.99706150  0.41492309  0.25127754     1.35200
C599        C  0.56019594  0.37391511  0.16331786     0.78900
C600        C  0.92730463  0.37233908  0.33596973     0.79000
C601        C  0.91054604  0.36815333  0.17979727     0.78900
C602        C  0.58516921  0.37427698  0.31796301     0.78800
C603        C  0.62852668  0.13121545  0.37788268    -0.01000
C604        C  0.62370296  0.38074540  0.37430487    -0.01000
C605        C  0.61680714  0.36932412  0.12909155    -0.01000
C606        C  0.62401556  0.12272005  0.12483205    -0.01000
O607        O  0.66457210  0.31432567  0.05495547    -0.70300
O608        O  0.66809542  0.19175575  0.45594896    -0.70500
O609        O  0.66971599  0.31002630  0.44152055    -0.70400
O610        O  0.66885408  0.19772451  0.06732246    -0.70400
O611        O  0.57659734  0.19194575  0.05895272    -0.70300
O612        O  0.57713974  0.30918519  0.43577771    -0.70400
O613        O  0.57580886  0.19255641  0.44725833    -0.70300
O614        O  0.57215824  0.30780726  0.05330295    -0.70500
V615        V  0.66749423  0.24990831  0.00411036     1.35200
V616        V  0.57877084  0.24713650  0.99767873     1.35200
C617        C  0.61698074  0.33135466  0.07428789     0.78900
C618        C  0.62284495  0.17019594  0.43253298     0.79000
C619        C  0.62409985  0.32898790  0.41722806     0.78900
C620        C  0.62303461  0.17481452  0.08351903     0.78800
C621        C  0.96435120  0.47030114  0.03358166     0.88000
C622        C  0.02611360  0.45237010  0.03915046    -0.52300
C623        C  0.50884741  0.48318300  0.43764808     0.10900
C624        C  0.52905802  0.02902409  0.47191060     0.21800
C625        C  0.96217627  0.53301365  0.04745309    -0.53000
C626        C  0.55916674  0.00105208  0.02907463     0.11000
C627        C  0.94732102  0.46440637  0.97122410    -0.52500
C628        C  0.98246946  0.00493557  0.43882675     0.11600
H629        H  0.03797882  0.41124581  0.05719057     0.16100
H630        H  0.55734256  0.05577018  0.44544230     0.01800
H631        H  0.03214625  0.95251770  0.09610403     0.16400
H632        H  0.90137488  0.03900080  0.03317996     0.16200
C633        C  0.77881934  0.21679229  0.21917372     0.88000
C634        C  0.78236958  0.19822208  0.28076225    -0.52300
C635        C  0.74690378  0.22900110  0.31336631     0.10900
C636        C  0.71890408  0.27964069  0.28224022     0.21800
C637        C  0.71643826  0.21602574  0.20168760    -0.53000
C638        C  0.68547107  0.25316613  0.23225935     0.11000
C639        C  0.79720526  0.27832178  0.21784418    -0.52500
C640        C  0.76806124  0.31073674  0.25474474     0.11600
H641        H  0.79683242  0.15586691  0.29193129     0.16100
H642        H  0.69270851  0.30715446  0.30997364     0.01800
H643        H  0.70279534  0.20008151  0.16080371     0.16400
H644        H  0.83859452  0.28965540  0.20268437     0.16200
C645        C  0.58316753  0.03863530  0.06774544    -0.11800
C646        C  0.59294754  0.08065329  0.09353610    -0.13400
C647        C  0.65638550  0.29268183  0.19857319    -0.11800
C648        C  0.64601090  0.33100892  0.16726635    -0.13400
C649        C  0.58719412  0.41966619  0.40199875    -0.11800
C650        C  0.55029758  0.45196254  0.41147824    -0.13400
C651        C  0.66894378  0.16612534  0.35020958    -0.11800
C652        C  0.70844111  0.19555090  0.34150063    -0.13400
C653        C  0.92995338  0.43841775  0.06755123    -0.11800
C654        C  0.90182407  0.40788653  0.09335874    -0.13400
C655        C  0.83445967  0.34602516  0.33310355    -0.11800
C656        C  0.80302208  0.33846728  0.29375585    -0.13400
C657        C  0.81158002  0.18345741  0.18435393    -0.11800
C658        C  0.84033292  0.15740232  0.15443796    -0.13400
C659        C  0.91665582  0.08282788  0.40110356    -0.11800
C660        C  0.95058811  0.04661700  0.41082137    -0.13400
O661        O  0.93812536  0.07503186  0.80696351    -0.70300
O662        O  0.56449366  0.08133701  0.69858391    -0.70500
O663        O  0.56059504  0.08056958  0.81445724    -0.70400
O664        O  0.94282580  0.07143154  0.69077646    -0.70400
O665        O  0.94975031  0.16335003  0.68262428    -0.70300
O666        O  0.56048531  0.17323890  0.81243944    -0.70400
O667        O  0.56203525  0.17398969  0.69584398    -0.70300
O668        O  0.93037462  0.16709181  0.79831859    -0.70500
V669        V  0.50374686  0.08202796  0.75312838     1.35200
V670        V  0.99697239  0.16437937  0.75186889     1.35200
C671        C  0.91424431  0.12164328  0.82242099     0.78900
C672        C  0.58282985  0.12806123  0.67691897     0.79000
C673        C  0.58156778  0.12687648  0.83349727     0.78900
C674        C  0.92680598  0.11677382  0.66460988     0.78800
C675        C  0.87724483  0.12266946  0.87641444    -0.01000
O676        O  0.80840249  0.05868556  0.92288057    -0.70300
O677        O  0.70136322  0.44180064  0.92146992    -0.70500
O678        O  0.81366331  0.45326048  0.92013142    -0.70400
O679        O  0.69255425  0.05116950  0.92486966    -0.70400
O680        O  0.68926632  0.04952949  0.83218039    -0.70300
O681        O  0.80957067  0.45622484  0.82768608    -0.70400
O682        O  0.69199826  0.44312511  0.82923639    -0.70300
O683        O  0.80619882  0.05745634  0.83023782    -0.70500
V684        V  0.75477814  0.99603733  0.92218868     1.35200
V685        V  0.75174999  0.99553278  0.83324453     1.35200
C686        C  0.82664081  0.07921799  0.87618493     0.78900
C687        C  0.67774078  0.42033655  0.87625019     0.79000
C688        C  0.83171172  0.43406384  0.87344926     0.78900
C689        C  0.67085723  0.07102904  0.87842381     0.78800
O690        O  0.81148279  0.04657330  0.66651779    -0.70300
O691        O  0.68967135  0.44106577  0.67966144    -0.70500
O692        O  0.80633150  0.43051306  0.67561012    -0.70400
O693        O  0.69475885  0.06896801  0.66741680    -0.70400
O694        O  0.68676405  0.06282088  0.57511417    -0.70300
O695        O  0.79287321  0.42567596  0.58366668    -0.70400
O696        O  0.67931824  0.44637570  0.58748399    -0.70100
O697        O  0.80430550  0.05137845  0.57410493    -0.70500
V698        V  0.75312845  0.49388243  0.67517655     1.35200
V699        V  0.74698792  0.49401570  0.58652864     1.35200
C700        C  0.83058681  0.06692363  0.62001357     0.78900
C701        C  0.66293903  0.42467725  0.63415241     0.79000
C702        C  0.81883335  0.40674363  0.62880541     0.78900
C703        C  0.67063660  0.08652389  0.62126907     0.78800
C704        C  0.87301393  0.11892830  0.62236996    -0.01000
O705        O  0.91842465  0.29502792  0.56434466    -0.70300
O706        O  0.91435148  0.20720491  0.92722197    -0.70500
O707        O  0.91381368  0.31936800  0.94748765    -0.70400
O708        O  0.92192583  0.17990137  0.55151056    -0.70400
O709        O  0.82932073  0.17836144  0.54576871    -0.70300
O710        O  0.82162477  0.31220123  0.93927386    -0.70400
O711        O  0.82294056  0.19456843  0.93131007    -0.70300
O712        O  0.82584408  0.29574083  0.56055860    -0.70500
V713        V  0.91848535  0.24429647  0.49903088     1.35200
V714        V  0.82964012  0.24360848  0.49551007     1.35200
C715        C  0.87182084  0.31463378  0.58422085     0.78900
C716        C  0.86961512  0.18056347  0.90882629     0.79000
C717        C  0.86758705  0.33635569  0.92312832     0.78900
C718        C  0.87569747  0.15780466  0.56804330     0.78800
C719        C  0.86742810  0.37744627  0.86998619    -0.01000
C720        C  0.87361301  0.36931252  0.62379322    -0.01000
O721        O  0.53980292  0.33432942  0.68903255    -0.70300
O722        O  0.94507881  0.33147075  0.81707620    -0.70500
O723        O  0.93788813  0.32582813  0.69919940    -0.70400
O724        O  0.56239178  0.33388809  0.80648905    -0.70400
O725        O  0.55525745  0.42602464  0.81262894    -0.70300
O726        O  0.93531975  0.41837039  0.69732057    -0.70400
O727        O  0.94182832  0.42406132  0.81384072    -0.70300
O728        O  0.55046939  0.42587356  0.69609109    -0.70500
V729        V  0.99940691  0.33182573  0.75604887     1.35200
V730        V  0.99721113  0.42066571  0.75459509     1.35200
C731        C  0.56470235  0.37960475  0.67164380     0.78900
C732        C  0.92318160  0.37821862  0.83515401     0.79000
C733        C  0.91593730  0.37073491  0.67747152     0.78900
C734        C  0.58011192  0.38004102  0.82961073     0.78800
C735        C  0.63464673  0.12733333  0.87538566    -0.01000
C736        C  0.62360041  0.38049499  0.88183581    -0.01000
C737        C  0.61966173  0.37366707  0.63471215    -0.01000
C738        C  0.61750029  0.12745584  0.62125812    -0.01000
O739        O  0.66454272  0.32037685  0.55774015    -0.70300
O740        O  0.67223759  0.18447467  0.95563135    -0.70500
O741        O  0.67198907  0.30289891  0.93988849    -0.70400
O742        O  0.66737720  0.20330382  0.56773911    -0.70400
O743        O  0.57492441  0.20678765  0.56476854    -0.70300
O744        O  0.57935010  0.30206254  0.93569979    -0.70400
O745        O  0.58013355  0.18573572  0.94275228    -0.70300
O746        O  0.57184731  0.32041881  0.55384107    -0.70500
V747        V  0.66549045  0.25694727  0.50543287     1.35200
V748        V  0.57670993  0.25723472  0.50028508     1.35200
C749        C  0.61763562  0.33949686  0.57721827     0.78900
C750        C  0.62775523  0.16394071  0.93003987     0.79000
C751        C  0.62606013  0.32336963  0.91767927     0.78900
C752        C  0.62081595  0.18428553  0.58614871     0.78800
C753        C  0.96394337  0.46694359  0.52553664     0.88000
C754        C  0.96992491  0.45060657  0.46369319    -0.52300
C755        C  0.55777710  0.47603094  0.00110293     0.10900
C756        C  0.53540230  0.03205034  0.97637116     0.21800
C757        C  0.02333219  0.46518676  0.55267284    -0.53000
C758        C  0.50001390  0.06178338  0.51924082     0.11000
C759        C  0.94540725  0.52863564  0.52634281    -0.52500
C760        C  0.97984021  0.06318058  0.99671409     0.11600
H761        H  0.95824078  0.40850680  0.44836914     0.16100
H762        H  0.56703794  0.05958012  0.95491350     0.01800
H763        H  0.94834398  0.03638409  0.59243394     0.16400
H764        H  0.90838179  0.95402776  0.45013341     0.16200
C765        C  0.77940836  0.21724272  0.71700093     0.88000
C766        C  0.78555880  0.19915068  0.77865304    -0.52300
C767        C  0.74992797  0.22888303  0.81191530     0.10900
C768        C  0.71937139  0.27846351  0.78110838     0.21800
C769        C  0.71660440  0.21409224  0.70131027    -0.53000
C770        C  0.68534928  0.25082362  0.73205089     0.11000
C771        C  0.79604177  0.27922644  0.71445445    -0.52500
C772        C  0.76675944  0.31086752  0.75184045     0.11600
H773        H  0.80236831  0.15741340  0.79017028     0.16100
H774        H  0.69307879  0.30544927  0.80937484     0.01800
H775        H  0.70209765  0.19546869  0.66184788     0.16400
H776        H  0.83685014  0.29191116  0.69837067     0.16200
C777        C  0.53776321  0.09094263  0.55403759    -0.11800
C778        C  0.57693035  0.09959627  0.58522038    -0.13400
C779        C  0.65567710  0.29032573  0.69851473    -0.11800
C780        C  0.64702922  0.33117577  0.66980482    -0.13400
C781        C  0.59573710  0.41394615  0.92321713    -0.11800
C782        C  0.58605381  0.44171075  0.96358949    -0.13400
C783        C  0.67479416  0.16295044  0.84847164    -0.11800
C784        C  0.71336892  0.19383672  0.84061304    -0.13400
C785        C  0.92734783  0.43239742  0.55445985    -0.11800
C786        C  0.90310290  0.40452496  0.58657361    -0.13400
C787        C  0.83181989  0.34933932  0.82921153    -0.11800
C788        C  0.80140883  0.34030713  0.78952977    -0.13400
C789        C  0.81171931  0.18428354  0.68219159    -0.11800
C790        C  0.83972663  0.15510118  0.65490284    -0.13400
C791        C  0.91697457  0.09888211  0.91658583    -0.11800
C792        C  0.94974761  0.09254334  0.95501846    -0.13400
O793        O  0.94101294  0.58083094  0.30483219    -0.70300
O794        O  0.55884722  0.57581523  0.19758597    -0.70500
O795        O  0.55451574  0.57448445  0.31386022    -0.70400
O796        O  0.94502450  0.57622065  0.18938895    -0.70400
O797        O  0.94287169  0.66878784  0.18759193    -0.70300
O798        O  0.54336235  0.66618472  0.31958594    -0.70400
O799        O  0.56320591  0.66819851  0.20298916    -0.70300
O800        O  0.94101873  0.67341436  0.30488145    -0.70500
V801        V  0.49774540  0.57634510  0.25142871     1.35200
V802        V  0.00026498  0.67079826  0.24928173     1.35200
C803        C  0.92021120  0.62752560  0.32423139     0.78900
C804        C  0.58147379  0.62252061  0.18061069     0.79000
C805        C  0.56898116  0.62097187  0.33823057     0.78900
C806        C  0.92308975  0.62122311  0.16797764     0.78800
C807        C  0.88088432  0.62743557  0.37730767    -0.01000
O808        O  0.81017729  0.56370369  0.42241975    -0.70300
O809        O  0.70136034  0.93511240  0.42436925    -0.70500
O810        O  0.81320516  0.94691269  0.42202326    -0.70400
O811        O  0.69292954  0.55816472  0.42325794    -0.70400
O812        O  0.68716529  0.55468161  0.33072628    -0.70300
O813        O  0.80553680  0.94269070  0.32958284    -0.70400
O814        O  0.68910144  0.93746366  0.33223335    -0.70300
O815        O  0.80463259  0.56815356  0.32990810    -0.70500
V816        V  0.75448591  0.50238398  0.42091405     1.35200
V817        V  0.75259089  0.50379053  0.33215822     1.35200
C818        C  0.82795883  0.58614483  0.37612798     0.78900
C819        C  0.67591922  0.91513730  0.37950122     0.79000
C820        C  0.82959772  0.92473137  0.37594176     0.78900
C821        C  0.66857476  0.57571252  0.37708114     0.78800
O822        O  0.80950720  0.54633183  0.17110216    -0.70300
O823        O  0.68378354  0.95750219  0.17376386    -0.70500
O824        O  0.80046856  0.93405947  0.17241219    -0.70400
O825        O  0.69134781  0.55803788  0.17369107    -0.70400
O826        O  0.68987361  0.55915180  0.08111601    -0.70300
O827        O  0.79513268  0.93263131  0.07987056    -0.70400
O828        O  0.68106748  0.94973401  0.08153250    -0.70100
O829        O  0.80633382  0.54579483  0.07851366    -0.70500
V830        V  0.75224387  0.00204550  0.16998518     1.35200
V831        V  0.74693635  0.99991403  0.08122558     1.35200
C832        C  0.82969708  0.56535733  0.12432208     0.78900
C833        C  0.66106163  0.93434713  0.12895727     0.79000
C834        C  0.81672377  0.91127397  0.12623912     0.78900
C835        C  0.67106364  0.57992671  0.12747486     0.78800
C836        C  0.86974928  0.61982780  0.12540730    -0.01000
O837        O  0.92030627  0.79716929  0.06830632    -0.70300
O838        O  0.91904163  0.70734713  0.43514758    -0.70500
O839        O  0.91910751  0.81892079  0.45638704    -0.70400
O840        O  0.92258254  0.68105478  0.05901282    -0.70400
O841        O  0.83087915  0.67587816  0.04398282    -0.70300
O842        O  0.82649405  0.81596725  0.45147282    -0.70400
O843        O  0.82690574  0.69857294  0.43321596    -0.70300
O844        O  0.82787533  0.79291698  0.06556170    -0.70500
V845        V  0.92290636  0.74377371  0.00504904     1.35200
V846        V  0.83433154  0.74454208  0.99874944     1.35200
C847        C  0.87266007  0.81545029  0.08759007     0.78900
C848        C  0.87430587  0.68367337  0.41281209     0.79000
C849        C  0.87305305  0.83802076  0.43384831     0.78900
C850        C  0.87565456  0.65692699  0.07053799     0.78800
C851        C  0.87065993  0.87264218  0.37649541    -0.01000
C852        C  0.87138371  0.87185436  0.12486180    -0.01000
O853        O  0.55196966  0.83193406  0.19378841    -0.70300
O854        O  0.95014644  0.83273167  0.32252767    -0.70500
O855        O  0.92898954  0.82894691  0.20549569    -0.70400
O856        O  0.55993261  0.83108636  0.31179153    -0.70400
O857        O  0.55786768  0.92373122  0.31168843    -0.70300
O858        O  0.93307435  0.92112685  0.19708768    -0.70400
O859        O  0.93748405  0.92417962  0.31396159    -0.70300
O860        O  0.55243259  0.92456800  0.19472953    -0.70500
V861        V  0.99620665  0.83470488  0.25561671     1.35200
V862        V  0.99391803  0.92320991  0.25480931     1.35200
C863        C  0.57172564  0.87874324  0.17375483     0.78900
C864        C  0.92445312  0.87781293  0.33898154     0.79000
C865        C  0.91080967  0.87373638  0.18018814     0.78900
C866        C  0.57910510  0.87745071  0.33273244     0.78800
C867        C  0.62559252  0.62722573  0.37553938    -0.01000
C868        C  0.62119732  0.87815707  0.38588199    -0.01000
C869        C  0.62516630  0.87836443  0.13534599    -0.01000
C870        C  0.61913069  0.62279835  0.12637160    -0.01000
O871        O  0.66969849  0.81465808  0.06435828    -0.70300
O872        O  0.67051697  0.68510120  0.45247348    -0.70500
O873        O  0.67124642  0.80263960  0.44406203    -0.70400
O874        O  0.67061298  0.69688877  0.07062237    -0.70400
O875        O  0.57854129  0.70516590  0.07297793    -0.70300
O876        O  0.57859749  0.80017690  0.44107117    -0.70400
O877        O  0.57780673  0.68426067  0.44964565    -0.70300
O878        O  0.57715988  0.81901970  0.05977329    -0.70500
V879        V  0.66740411  0.75293523  0.00910738     1.35200
V880        V  0.57864170  0.75496215  0.00736433     1.35200
C881        C  0.62363077  0.83709002  0.08253398     0.78900
C882        C  0.62408756  0.66449417  0.43071375     0.79000
C883        C  0.62460385  0.82194537  0.42231510     0.78900
C884        C  0.62429653  0.68037830  0.09213461     0.78800
C885        C  0.96536818  0.96731026  0.02595152     0.88000
C886        C  0.97190152  0.95137588  0.96401453    -0.52300
C887        C  0.55970373  0.97937762  0.50252664     0.10900
C888        C  0.53261320  0.53262529  0.47266342     0.21800
C889        C  0.02472421  0.96687057  0.05280493    -0.53000
C890        C  0.50260069  0.56043824  0.02057371     0.11000
C891        C  0.94568177  0.02870934  0.02696494    -0.52500
C892        C  0.98042044  0.56202120  0.49597655     0.11600
H893        H  0.96232920  0.90883724  0.94880768     0.16100
H894        H  0.56202191  0.56070797  0.44909671     0.01800
H895        H  0.94706194  0.54735957  0.08798132     0.16400
H896        H  0.90742535  0.44522367  0.95818786     0.16200
C897        C  0.77305637  0.71893454  0.21466927     0.88000
C898        C  0.71150789  0.70172104  0.22089019    -0.52300
C899        C  0.68632937  0.73230460  0.26212660     0.10900
C900        C  0.72289839  0.78006040  0.28711672     0.21800
C901        C  0.77354065  0.78137411  0.19883606    -0.53000
C902        C  0.74308639  0.81290198  0.23550041     0.11000
C903        C  0.80090168  0.71465313  0.27358345    -0.52500
C904        C  0.77649054  0.75052238  0.31064832     0.11600
H905        H  0.69625083  0.66010263  0.20759106     0.16100
H906        H  0.70077674  0.80704045  0.31880749     0.01800
H907        H  0.78058831  0.79516600  0.15546151     0.16400
H908        H  0.84413547  0.69925539  0.27958888     0.16200
C909        C  0.54194918  0.58843334  0.05470201    -0.11800
C910        C  0.58001707  0.59661679  0.08736667    -0.13400
C911        C  0.70070568  0.84289036  0.20765004    -0.11800
C912        C  0.66324182  0.85090944  0.17429571    -0.13400
C913        C  0.59415232  0.91350508  0.42618671    -0.11800
C914        C  0.58722504  0.94384736  0.46544865    -0.13400
C915        C  0.65257932  0.66622115  0.33899026    -0.11800
C916        C  0.66116385  0.69939946  0.30273440    -0.13400
C917        C  0.92926592  0.93202329  0.05536103    -0.11800
C918        C  0.90347686  0.90557088  0.08774764    -0.13400
C919        C  0.83949580  0.83119354  0.34467664    -0.11800
C920        C  0.81413459  0.78907189  0.33451512    -0.13400
C921        C  0.80134399  0.68573182  0.17659901    -0.11800
C922        C  0.83274515  0.65599119  0.15375169    -0.13400
C923        C  0.91908015  0.60024437  0.41619108    -0.11800
C924        C  0.95135888  0.59195408  0.45444023    -0.13400
O925        O  0.93561841  0.58363707  0.79270793    -0.70300
O926        O  0.56399429  0.57760099  0.70121926    -0.70500
O927        O  0.54811735  0.57873994  0.81595874    -0.70400
O928        O  0.95279644  0.57905573  0.68059411    -0.70400
O929        O  0.94331269  0.67110822  0.68527396    -0.70300
O930        O  0.54261143  0.67099714  0.81573878    -0.70400
O931        O  0.56336023  0.67013347  0.69834886    -0.70300
O932        O  0.94209404  0.67523939  0.80320507    -0.70500
V933        V  0.49752281  0.57991164  0.74749148     1.35200
V934        V  0.00097902  0.67328375  0.74613945     1.35200
C935        C  0.91802341  0.62880516  0.81756607     0.78900
C936        C  0.58509877  0.62337200  0.68104180     0.79000
C937        C  0.56461495  0.62584993  0.83836586     0.78900
C938        C  0.92700343  0.62371077  0.66269736     0.78800
C939        C  0.88096797  0.62282679  0.87236607    -0.01000
O940        O  0.80347492  0.57042098  0.91744473    -0.70300
O941        O  0.70094045  0.93368053  0.92356579    -0.70500
O942        O  0.81744630  0.94145470  0.92481651    -0.70400
O943        O  0.68734396  0.56025163  0.92337033    -0.70400
O944        O  0.68162116  0.56029856  0.83079270    -0.70300
O945        O  0.81428639  0.94170952  0.83211050    -0.70400
O946        O  0.69688879  0.93364361  0.83083547    -0.70300
O947        O  0.79968719  0.57004024  0.82474412    -0.70500
V948        V  0.75114440  0.50697315  0.91866211     1.35200
V949        V  0.74554569  0.50740673  0.82990226     1.35200
C950        C  0.82308658  0.58926362  0.87045487     0.78900
C951        C  0.67837630  0.91372531  0.87726644     0.79000
C952        C  0.83681532  0.92189613  0.87855269     0.78900
C953        C  0.66325776  0.57994037  0.87793521     0.78800
O954        O  0.81712604  0.54588840  0.67225021    -0.70300
O955        O  0.67378959  0.95693960  0.66779386    -0.70500
O956        O  0.79061123  0.93341604  0.67130395    -0.70400
O957        O  0.69927243  0.55739395  0.67959915    -0.70400
O958        O  0.70259666  0.56294676  0.58746428    -0.70300
O959        O  0.79104706  0.93425379  0.57875027    -0.70400
O960        O  0.67665955  0.94552138  0.57608254    -0.70100
O961        O  0.81327273  0.54253371  0.57975377    -0.70500
V962        V  0.74257508  0.00140292  0.66634393     1.35200
V963        V  0.73979413  0.99894155  0.57763774     1.35200
C964        C  0.83567382  0.56459284  0.62451237     0.78900
C965        C  0.65497808  0.93086877  0.62291846     0.79000
C966        C  0.81020192  0.91223603  0.62587257     0.78900
C967        C  0.68162643  0.58186833  0.63369087     0.78800
C968        C  0.87169714  0.62139397  0.62338274    -0.01000
O969        O  0.91231336  0.79700504  0.57227334    -0.70300
O970        O  0.92686382  0.68970945  0.94245378    -0.70500
O971        O  0.92796575  0.80642909  0.95026590    -0.70400
O972        O  0.91816761  0.68322426  0.55172922    -0.70400
O973        O  0.82559517  0.68212763  0.54764135    -0.70300
O974        O  0.83593878  0.81343703  0.95427951    -0.70400
O975        O  0.83491498  0.69698554  0.93106629    -0.70300
O976        O  0.81989759  0.79948129  0.56313000    -0.70500
V977        V  0.91526643  0.75140339  0.50408668     1.35200
V978        V  0.82652426  0.74903602  0.49885057     1.35200
C979        C  0.86473461  0.81768862  0.58861716     0.78900
C980        C  0.88121783  0.67397401  0.91548867     0.79000
C981        C  0.88227849  0.83144929  0.93283799     0.78900
C982        C  0.87221628  0.66077151  0.56874230     0.78800
C983        C  0.87762962  0.86905359  0.87703314    -0.01000
C984        C  0.86466313  0.87262368  0.62605156    -0.01000
O985        O  0.55362761  0.82504631  0.69106325    -0.70300
O986        O  0.95134882  0.82834141  0.81636462    -0.70500
O987        O  0.92763771  0.82627215  0.70026872    -0.70400
O988        O  0.56102636  0.82429049  0.80870085    -0.70400
O989        O  0.56727387  0.91581207  0.79649289    -0.70300
O990        O  0.92663989  0.91891901  0.69872645    -0.70400
O991        O  0.94515083  0.92069163  0.81358319    -0.70300
O992        O  0.54518934  0.91713030  0.68341462    -0.70500
V993        V  0.99618198  0.83077651  0.74906891     1.35200
V994        V  0.99424907  0.91950541  0.74737693     1.35200
C995        C  0.56924390  0.87165410  0.66727292     0.78900
C996        C  0.92969337  0.87380458  0.83653074     0.79000
C997        C  0.90519395  0.87201826  0.68028568     0.78900
C998        C  0.58550481  0.87080555  0.82277461     0.78800
C999        C  0.62040191  0.63194617  0.87806409    -0.01000
C1000       C  0.62265279  0.87753056  0.87937816    -0.01000
C1001       C  0.62313413  0.87284185  0.63010714    -0.01000
C1002       C  0.62591085  0.61980507  0.62902010    -0.01000
O1003       O  0.66982491  0.81014889  0.56016209    -0.70300
O1004       O  0.66657731  0.69066616  0.95453551    -0.70500
O1005       O  0.66984424  0.80822564  0.94702274    -0.70400
O1006       O  0.67297783  0.69293596  0.56900969    -0.70400
O1007       O  0.58028949  0.69316651  0.56702094    -0.70300
O1008       O  0.57726053  0.80633126  0.94225232    -0.70400
O1009       O  0.57403801  0.69023767  0.95442778    -0.70300
O1010       O  0.57719734  0.80856950  0.55821571    -0.70500
V1011       V  0.66931681  0.74755033  0.50636487     1.35200
V1012       V  0.58039914  0.74653493  0.50402987     1.35200
C1013       C  0.62305398  0.83022581  0.57881479     0.78900
C1014       C  0.61961456  0.66974718  0.93404190     0.79000
C1015       C  0.62371693  0.82649239  0.92306469     0.78900
C1016       C  0.62703079  0.67329476  0.58894354     0.78800
C1017       C  0.96339346  0.96547287  0.52962288     0.88000
C1018       C  0.02386682  0.94410759  0.53517767    -0.52300
C1019       C  0.51036381  0.98522709  0.93849693     0.10900
C1020       C  0.52887446  0.52742844  0.97209500     0.21800
C1021       C  0.96428709  0.02609479  0.55100826    -0.53000
C1022       C  0.55979300  0.50472752  0.52540600     0.11000
C1023       C  0.94908062  0.96772892  0.46658581    -0.52500
C1024       C  0.97736514  0.49971488  0.93780149     0.11600
H1025       H  0.03213757  0.90079542  0.54829714     0.16100
H1026       H  0.55774672  0.55334996  0.94551768     0.01800
H1027       H  0.03077979  0.44967806  0.59574188     0.16400
H1028       H  0.90148523  0.54033931  0.53317946     0.16200
C1029       C  0.77088006  0.71348659  0.71818228     0.88000
C1030       C  0.70885302  0.69875335  0.72570337    -0.52300
C1031       C  0.68433324  0.73386467  0.76395894     0.10900
C1032       C  0.72220367  0.78245015  0.78491017     0.21800
C1033       C  0.77244327  0.77437877  0.69710268    -0.53000
C1034       C  0.74345065  0.81015536  0.73097533     0.11000
C1035       C  0.79841396  0.71387937  0.77725983    -0.52500
C1036       C  0.77457394  0.75316935  0.81117984     0.11600
H1037       H  0.69345187  0.65588947  0.71827649     0.16100
H1038       H  0.70088080  0.81253764  0.81419320     0.01800
H1039       H  0.77827060  0.78356753  0.65245028     0.16400
H1040       H  0.84125796  0.69837991  0.78475945     0.16200
C1041       C  0.58494570  0.54338643  0.56198532    -0.11800
C1042       C  0.59513572  0.58153947  0.59294105    -0.13400
C1043       C  0.70246999  0.84061387  0.70103529    -0.11800
C1044       C  0.66363665  0.84849121  0.66914876    -0.13400
C1045       C  0.58670453  0.91788972  0.90560483    -0.11800
C1046       C  0.55118098  0.95227335  0.91330651    -0.13400
C1047       C  0.64859119  0.67178619  0.84302303    -0.11800
C1048       C  0.65828766  0.70514690  0.80717586    -0.13400
C1049       C  0.92602452  0.93236272  0.55959269    -0.11800
C1050       C  0.89796746  0.90620306  0.59004834    -0.13400
C1051       C  0.84285383  0.82984245  0.84585480    -0.11800
C1052       C  0.81304068  0.79095285  0.83499273    -0.13400
C1053       C  0.79988382  0.67772000  0.68222572    -0.11800
C1054       C  0.83379535  0.65392969  0.65581395    -0.13400
C1055       C  0.91525763  0.57959027  0.89943066    -0.11800
C1056       C  0.94314750  0.53810371  0.90760037    -0.13400
loop_ 
_geom_bond_atom_site_label_1 
_geom_bond_atom_site_label_2 
_geom_bond_distance 
_geom_bond_site_symmetry_2 
_ccdc_geom_bond_type 
O1           C11   1.280       .  A
O1          V537   1.920       .  S
O2           C12   1.275       .  A
O2            V9   1.918   1_455  S
O3           C13   1.275       .  A
O3            V9   1.960   1_455  S
O4           C14   1.268       .  A
O4          V537   1.936       .  S
O5           C14   1.281       .  A
O5           V10   1.929       .  S
O6           C13   1.279       .  A
O6          V538   1.916   1_455  S
O7           C12   1.275       .  A
O7          V538   1.950   1_455  S
O8           C11   1.273       .  A
O8           V10   1.950       .  S
V9          O529   1.911       .  S
V9          O532   1.939       .  S
V9          V538   2.075       .  T
V10         O534   1.929       .  S
V10         O535   1.942       .  S
V10         V537   2.070       .  T
C11          C15   1.577       .  S
C12          C78   1.567       .  S
C13          C75   1.582       .  S
C14          C44   1.564       .  S
C15          C26   1.563       .  S
C15          C56   1.567       .  S
C15         C131   1.424       .  S
O16          C26   1.280       .  A
O16          V24   1.924       .  S
O17          C27   1.280       .  A
O17         V288   1.930       .  S
O18          C28   1.270       .  A
O18         V288   1.940       .  S
O19          C29   1.272       .  A
O19          V24   1.946       .  S
O20          C29   1.279       .  A
O20          V25   1.932       .  S
O21          C28   1.279       .  A
O21         V289   1.929       .  S
O22          C27   1.269       .  A
O22         V289   1.935       .  S
O23          C26   1.269       .  A
O23          V25   1.942       .  S
V24         O281   1.917   1_545  S
V24         O282   1.920   1_545  S
V24          V25   2.076       .  T
V25         O285   1.912   1_545  S
V25         O286   1.957   1_545  S
C27          C76   1.559       .  S
C28          C59   1.561       .  S
C29          C75   1.570       .  S
O30          C40   1.286       .  A
O30         V302   1.936   1_545  S
O31          C41   1.281       .  A
O31          V38   1.919       .  S
O32          C42   1.271       .  A
O32          V38   1.948       .  S
O33          C43   1.272       .  A
O33         V302   1.945   1_545  S
O34          C43   1.279       .  A
O34         V303   1.914   1_545  S
O35          C42   1.283       .  A
O35          V39   1.929       .  S
O36          C41   1.268       .  A
O36          V39   1.936       .  S
O37          C40   1.268       .  A
O37         V303   1.937   1_545  S
V38         O294   1.928       .  S
V38         O297   1.935       .  S
V38          V39   2.073       .  T
V39         O298   1.940       .  S
V39         O301   1.950       .  S
C40          C44   1.579       .  S
C41          C77   1.561       .  S
C42          C60   1.574       .  S
C43          C78   1.570       .  S
C44          C58   1.576       .  S
C44         C130   1.407       .  S
O45          C55   1.281       .  A
O45          V53   1.921       .  S
O46          C56   1.277       .  A
O46         V185   1.939       .  S
O47          C57   1.272       .  A
O47         V185   1.946       .  S
O48          C58   1.273       .  A
O48          V53   1.947       .  S
O49          C58   1.282       .  A
O49          V54   1.935       .  S
O50          C57   1.279       .  A
O50         V186   1.914       .  S
O51          C56   1.272       .  A
O51         V186   1.938       .  S
O52          C55   1.265       .  A
O52          V54   1.923       .  S
V53         O178   1.916   1_554  S
V53         O179   1.935   1_554  S
V53          V54   2.076       .  T
V54         O182   1.914   1_554  S
V54         O183   1.938   1_554  S
C55          C60   1.557       .  S
C57          C59   1.572       .  S
C59          C72   1.569       .  S
C59         C127   1.414       .  S
C60          C73   1.557       .  S
C60         C126   1.404       .  S
O61          C71   1.281       .  A
O61         V597   1.927   1_455  S
O62          C72   1.275       .  A
O62          V69   1.919       .  S
O63          C73   1.272       .  A
O63          V69   1.940       .  S
O64          C74   1.269       .  A
O64         V597   1.943   1_455  S
O65          C74   1.284       .  A
O65         V598   1.927   1_455  S
O66          C73   1.276       .  A
O66          V70   1.917       .  S
O67          C72   1.276       .  A
O67          V70   1.953       .  S
O68          C71   1.265       .  A
O68         V598   1.926   1_455  S
V69         O589   1.914       .  S
V69         O592   1.960       .  S
V69          V70   2.075       .  T
V70         O593   1.914       .  S
V70         O596   1.947       .  S
C71          C77   1.552       .  S
C74          C76   1.572       .  S
C75          C90   1.576       .  S
C75         C123   1.417       .  S
C76          C91   1.570       .  S
C76         C121   1.411       .  S
C77          C89   1.560       .  S
C77         C120   1.414       .  S
C78          C92   1.561       .  S
C78         C118   1.414       .  S
O79          C89   1.278       .  A
O79          V87   1.931       .  S
O80          C90   1.282       .  A
O80         V219   1.936       .  S
O81          C91   1.272       .  A
O81         V219   1.944       .  S
O82          C92   1.270       .  A
O82          V87   1.939       .  S
O83          C92   1.279       .  A
O83          V88   1.930       .  S
O84          C91   1.279       .  A
O84         V220   1.938       .  S
O85          C90   1.272       .  A
O85         V220   1.953       .  S
O86          C89   1.269       .  A
O86          V88   1.931       .  S
V87         O212   1.929   1_554  S
V87         O213   1.945   1_554  S
V87          V88   2.078       .  T
V88         O216   1.932   1_554  S
V88         O217   1.933   1_554  S
C93         C125   1.376       .  S
C93          C94   1.502       .  S
C93          C99   1.501   1_554  S
C93          C97   1.500       .  S
C94         H101   1.076       .  S
C94         C755   1.350       .  D
C95         C360   1.514       .  S
C95         C754   1.352   1_455  D
C95         C122   1.368       .  S
C96         C359   1.525   1_545  S
C96         C628   1.518   1_455  S
C96         C230   1.517       .  S
C96         H102   1.111       .  S
C97         H367   1.072       .  S
C97         C890   1.348       .  D
C98         C228   1.514   1_554  S
C98         C889   1.346   1_545  D
C98         C117   1.368       .  S
C99         H368   1.069       .  S
C99         C496   1.349       .  D
C100        C624   1.523       .  S
C100        C495   1.348   1_545  D
C100        C132   1.380       .  S
H103        C361   1.078       .  S
H104        C363   1.080       .  S
C105        C129   1.380       .  S
C105        C106   1.508       .  S
C105        C111   1.506       .  S
C105        C109   1.507       .  S
C106        H113   1.076       .  S
C106        C107   1.353       .  D
C107        C108   1.513       .  S
C107        C124   1.372       .  S
C108        C112   1.515       .  S
C108        C110   1.514       .  S
C108        H114   1.109       .  S
C109        H115   1.078       .  S
C109        C110   1.349       .  D
C110        C119   1.369       .  S
C111        H116   1.076       .  S
C111        C112   1.346       .  D
C112        C128   1.366       .  S
C117        C118   1.170       .  T
C119        C120   1.172       .  T
C121        C122   1.170       .  T
C123        C124   1.171       .  T
C125        C126   1.157       .  T
C127        C128   1.169       .  T
C129        C130   1.161       .  T
C131        C132   1.180       .  T
O133        C143   1.283       .  A
O133        V669   1.939       .  S
O134        C144   1.283       .  A
O134        V141   1.931   1_455  S
O135        C145   1.269       .  A
O135        V141   1.945   1_455  S
O136        C146   1.265       .  A
O136        V669   1.929       .  S
O137        C146   1.285       .  A
O137        V142   1.939       .  S
O138        C145   1.283       .  A
O138        V670   1.926   1_455  S
O139        C144   1.269       .  A
O139        V670   1.939   1_455  S
O140        C143   1.266       .  A
O140        V142   1.929       .  S
V141        O661   1.927       .  S
V141        O664   1.944       .  S
V141        V670   2.072       .  T
V142        O666   1.939       .  S
V142        O667   1.923       .  S
V142        V669   2.078       .  T
C143        C147   1.563       .  S
C144        C210   1.567       .  S
C145        C207   1.573       .  S
C146        C176   1.569       .  S
C147        C158   1.569       .  S
C147        C188   1.566       .  S
C147        C263   1.408       .  S
O148        C158   1.282       .  A
O148        V156   1.940       .  S
O149        C159   1.280       .  A
O149        V420   1.913       .  S
O150        C160   1.265       .  A
O150        V420   1.909       .  S
O151        C161   1.273       .  A
O151        V156   1.944       .  S
O152        C161   1.279       .  A
O152        V157   1.939       .  S
O153        C160   1.275       .  A
O153        V421   1.924       .  S
O154        C159   1.268       .  A
O154        V421   1.932       .  S
O155        C158   1.268       .  A
O155        V157   1.937       .  S
V156        O413   1.938   1_545  S
V156        O414   1.945   1_545  S
V156        V157   2.074       .  T
V157        O417   1.928   1_545  S
V157        O418   1.956   1_545  S
C159        C208   1.558       .  S
C160        C191   1.549       .  S
C161        C207   1.570       .  S
O162        C172   1.283       .  A
O162        V434   1.937   1_545  S
O163        C173   1.282       .  A
O163        V170   1.918       .  S
O164        C174   1.271       .  A
O164        V170   1.942       .  S
O165        C175   1.274       .  A
O165        V434   1.946   1_545  S
O166        C175   1.278       .  A
O166        V435   1.936   1_545  S
O167        C174   1.282       .  A
O167        V171   1.933       .  S
O168        C173   1.268       .  A
O168        V171   1.938       .  S
O169        C172   1.273       .  A
O169        V435   1.954   1_545  S
V170        O426   1.923       .  S
V170        O429   1.932       .  S
V170        V171   2.076       .  T
V171        O430   1.914       .  S
V171        O433   1.923       .  S
C172        C176   1.581       .  S
C173        C209   1.566       .  S
C174        C192   1.572       .  S
C175        C210   1.575       .  S
C176        C190   1.558       .  S
C176        C262   1.395       .  S
O177        C187   1.285       .  A
O177        V185   1.936       .  S
O178        C188   1.281       .  A
O179        C189   1.265       .  A
O180        C190   1.271       .  A
O180        V185   1.933       .  S
O181        C190   1.278       .  A
O181        V186   1.927       .  S
O182        C189   1.283       .  A
O183        C188   1.268       .  A
O184        C187   1.267       .  A
O184        V186   1.933       .  S
V185        V186   2.073       .  T
C187        C192   1.575       .  S
C189        C191   1.565       .  S
C191        C204   1.558       .  S
C191        C259   1.412       .  S
C192        C205   1.561       .  S
C192        C258   1.406       .  S
O193        C203   1.282       .  A
O193        V729   1.940   1_455  S
O194        C204   1.277       .  A
O194        V201   1.925       .  S
O195        C205   1.267       .  A
O195        V201   1.933       .  S
O196        C206   1.266       .  A
O196        V729   1.929   1_455  S
O197        C206   1.281       .  A
O197        V730   1.940   1_455  S
O198        C205   1.282       .  A
O198        V202   1.929       .  S
O199        C204   1.272       .  A
O199        V202   1.940       .  S
O200        C203   1.267       .  A
O200        V730   1.930   1_455  S
V201        O721   1.922       .  S
V201        O724   1.941       .  S
V201        V202   2.071       .  T
V202        O725   1.931       .  S
V202        O728   1.948       .  S
C203        C209   1.565       .  S
C206        C208   1.561       .  S
C207        C222   1.556       .  S
C207        C255   1.413       .  S
C208        C223   1.568       .  S
C208        C253   1.414       .  S
C209        C221   1.568       .  S
C209        C252   1.406       .  S
C210        C224   1.577       .  S
C210        C250   1.413       .  S
O211        C221   1.282       .  A
O211        V219   1.936       .  S
O212        C222   1.280       .  A
O213        C223   1.271       .  A
O214        C224   1.270       .  A
O214        V219   1.947       .  S
O215        C224   1.284       .  A
O215        V220   1.928       .  S
O216        C223   1.281       .  A
O217        C222   1.268       .  A
O218        C221   1.268       .  A
O218        V220   1.937       .  S
V219        V220   2.075       .  T
C225        C257   1.379       .  S
C225        C226   1.507       .  S
C225        C231   1.507       .  S
C225        C229   1.506       .  S
C226        H233   1.076       .  S
C226        C623   1.352       .  D
C227        C492   1.526   1_554  S
C227        C622   1.349       .  D
C227        C254   1.372   1_554  S
C228        C491   1.514   1_545  S
C228        C760   1.515   1_455  S
C228        H234   1.110       .  S
C229        H499   1.077       .  S
C229       C1022   1.347       .  D
C230       C1021   1.348   1_455  D
C230        C249   1.368       .  S
C231        H500   1.077       .  S
C231        C364   1.350       .  D
C232        C756   1.518       .  S
C232        C363   1.350   1_556  D
C232        C264   1.362       .  S
H235        C493   1.079       .  S
H236        C495   1.070       .  S
C237        C261   1.370       .  S
C237        C238   1.506       .  S
C237        C243   1.508       .  S
C237        C241   1.506       .  S
C238        H245   1.081       .  S
C238        C239   1.353       .  D
C239        C240   1.515       .  S
C239        C256   1.370       .  S
C240        C244   1.517       .  S
C240        C242   1.515       .  S
C240        H246   1.112       .  S
C241        H247   1.078       .  S
C241        C242   1.347       .  D
C242        C251   1.360       .  S
C243        H248   1.079       .  S
C243        C244   1.347       .  D
C244        C260   1.368       .  S
C249        C250   1.171       .  T
C251        C252   1.168       .  T
C253        C254   1.174       .  T
C255        C256   1.172       .  T
C257        C258   1.160       .  T
C259        C260   1.171       .  T
C261        C262   1.155       .  T
C263        C264   1.170       .  T
O265        C275   1.280       .  A
O265        V801   1.925       .  S
O266        C276   1.284       .  A
O266        V273   1.942       .  S
O267        C277   1.267       .  A
O267        V273   1.931       .  S
O268        C278   1.271       .  A
O268        V801   1.939       .  S
O269        C278   1.280       .  A
O269        V274   1.929       .  S
O270        C277   1.281       .  A
O270        V802   1.942       .  S
O271        C276   1.265       .  A
O271        V802   1.927       .  S
O272        C275   1.266       .  A
O272        V274   1.926       .  S
V273        O793   1.942   1_455  S
V273        O796   1.929   1_455  S
V273        V802   2.077       .  T
V274        O798   1.926       .  S
V274        O799   1.939       .  S
V274        V801   2.072       .  T
C275        C279   1.550       .  S
C276        C342   1.559       .  S
C277        C339   1.563       .  S
C278        C308   1.572       .  S
C279        C290   1.560       .  S
C279        C320   1.560       .  S
C279        C395   1.414       .  S
O280        C290   1.278       .  A
O280        V288   1.931       .  S
O281        C291   1.281       .  A
O282        C292   1.264       .  A
O283        C293   1.271       .  A
O283        V288   1.945       .  S
O284        C293   1.280       .  A
O284        V289   1.932       .  S
O285        C292   1.280       .  A
O286        C291   1.274       .  A
O287        C290   1.269       .  A
O287        V289   1.932       .  S
V288        V289   2.078       .  T
C291        C340   1.580       .  S
C292        C323   1.560       .  S
C293        C339   1.567       .  S
O294        C304   1.279       .  A
O295        C305   1.277       .  A
O295        V302   1.938       .  S
O296        C306   1.270       .  A
O296        V302   1.931       .  S
O297        C307   1.269       .  A
O298        C307   1.281       .  A
O299        C306   1.279       .  A
O299        V303   1.924       .  S
O300        C305   1.272       .  A
O300        V303   1.935       .  S
O301        C304   1.274       .  A
V302        V303   2.072       .  T
C304        C308   1.571       .  S
C305        C341   1.564       .  S
C306        C324   1.556       .  S
C307        C342   1.569       .  S
C308        C322   1.560       .  S
C308        C394   1.390       .  S
O309        C319   1.283       .  A
O309        V317   1.937   1_554  S
O310        C320   1.281       .  A
O310        V449   1.917       .  S
O311        C321   1.268       .  A
O311        V449   1.933       .  S
O312        C322   1.269       .  A
O312        V317   1.938   1_554  S
O313        C322   1.280       .  A
O313        V318   1.923   1_554  S
O314        C321   1.281       .  A
O314        V450   1.938       .  S
O315        C320   1.267       .  A
O315        V450   1.935       .  S
O316        C319   1.273       .  A
O316        V318   1.955   1_554  S
V317        O442   1.933       .  S
V317        O443   1.945       .  S
V317        V318   2.076       .  T
V318        O446   1.935       .  S
V318        O447   1.936       .  S
C319        C324   1.580       .  S
C321        C323   1.566       .  S
C323        C336   1.554       .  S
C323        C391   1.413       .  S
C324        C337   1.572       .  S
C324        C390   1.395       .  S
O325        C335   1.280       .  A
O325        V861   1.920   1_455  S
O326        C336   1.282       .  A
O326        V333   1.936       .  S
O327        C337   1.266       .  A
O327        V333   1.932       .  S
O328        C338   1.273       .  A
O328        V861   1.941   1_455  S
O329        C338   1.277       .  A
O329        V862   1.933   1_455  S
O330        C337   1.284       .  A
O330        V334   1.940       .  S
O331        C336   1.265       .  A
O331        V334   1.925       .  S
O332        C335   1.272       .  A
O332        V862   1.947   1_455  S
V333        O853   1.935       .  S
V333        O856   1.930       .  S
V333        V334   2.078       .  T
V334        O857   1.940       .  S
V334        O860   1.928       .  S
C335        C341   1.576       .  S
C338        C340   1.565       .  S
C339        C354   1.558       .  S
C339        C387   1.415       .  S
C340        C355   1.571       .  S
C340        C385   1.420       .  S
C341        C353   1.564       .  S
C341        C384   1.424       .  S
C342        C356   1.567       .  S
C342        C382   1.413       .  S
O343        C353   1.280       .  A
O343        V351   1.924       .  S
O344        C354   1.280       .  A
O344        V483   1.914       .  S
O345        C355   1.270       .  A
O345        V483   1.948       .  S
O346        C356   1.265       .  A
O346        V351   1.925       .  S
O347        C356   1.282       .  A
O347        V352   1.916   1_554  S
O348        C355   1.282       .  A
O348        V484   1.930       .  S
O349        C354   1.268       .  A
O349        V484   1.932       .  S
O350        C353   1.269       .  A
O350        V352   1.943   1_554  S
V351        O476   1.920   1_554  S
V351        O477   1.947   1_554  S
V351        V352   2.075   1_554  T
V352        O480   1.937       .  S
V352        O481   1.959       .  S
C357        C389   1.370       .  S
C357        C358   1.507   1_554  S
C357        C363   1.506   1_565  S
C357        C361   1.509       .  S
C358        H365   1.080       .  S
C358       C1019   1.352       .  D
C359       C1018   1.351       .  D
C359        C386   1.375       .  S
C360        C892   1.515   1_455  S
C360        C494   1.516       .  S
C360        H366   1.113       .  S
C361        C626   1.346   1_565  D
C362        C492   1.521   1_654  S
C362        C625   1.349       .  D
C362        C381   1.369   1_655  S
C364        C888   1.515       .  S
C364        C396   1.368       .  S
C369        C393   1.365       .  S
C369        C370   1.505       .  S
C369        C375   1.503       .  S
C369        C373   1.505       .  S
C370        H377   1.082       .  S
C370        C371   1.350       .  D
C371        C372   1.527       .  S
C371        C388   1.373       .  S
C372        C376   1.522       .  S
C372        C374   1.524       .  S
C372        H378   1.112       .  S
C373        H379   1.071       .  S
C373        C374   1.348       .  D
C374        C383   1.380       .  S
C375        H380   1.077       .  S
C375        C376   1.348       .  D
C376        C392   1.368       .  S
C381        C382   1.173       .  T
C383        C384   1.179       .  T
C385        C386   1.176       .  T
C387        C388   1.175       .  T
C389        C390   1.156       .  T
C391        C392   1.172       .  T
C393        C394   1.151       .  T
C395        C396   1.172       .  T
O397        C407   1.280       .  A
O397        V933   1.913       .  S
O398        C408   1.277       .  A
O398        V405   1.923       .  S
O399        C409   1.273       .  A
O399        V405   1.942       .  S
O400        C410   1.271       .  A
O400        V933   1.940       .  S
O401        C410   1.277       .  A
O401        V406   1.919       .  S
O402        C409   1.277       .  A
O402        V934   1.932       .  S
O403        C408   1.273       .  A
O403        V934   1.941       .  S
O404        C407   1.271       .  A
O404        V406   1.947       .  S
V405        O925   1.919   1_455  S
V405        O928   1.936   1_455  S
V405        V934   2.070       .  T
V406        O930   1.916       .  S
V406        O931   1.954       .  S
V406        V933   2.075       .  T
C407        C411   1.570       .  S
C408        C474   1.558       .  S
C409        C471   1.565       .  S
C410        C440   1.559       .  S
C411        C422   1.561       .  S
C411        C452   1.563       .  S
C411        C527   1.425       .  S
O412        C422   1.277       .  A
O412        V420   1.924       .  S
O413        C423   1.282       .  A
O414        C424   1.269       .  A
O415        C425   1.270       .  A
O415        V420   1.949       .  S
O416        C425   1.283       .  A
O416        V421   1.933       .  S
O417        C424   1.284       .  A
O418        C423   1.273       .  A
O419        C422   1.270       .  A
O419        V421   1.934       .  S
V420        V421   2.077       .  T
C423        C472   1.581       .  S
C424        C455   1.575       .  S
C425        C471   1.573       .  S
O426        C436   1.281       .  A
O427        C437   1.278       .  A
O427        V434   1.931       .  S
O428        C438   1.269       .  A
O428        V434   1.937       .  S
O429        C439   1.264       .  A
O430        C439   1.284       .  A
O431        C438   1.280       .  A
O431        V435   1.923       .  S
O432        C437   1.270       .  A
O432        V435   1.935       .  S
O433        C436   1.265       .  A
V434        V435   2.076       .  T
C436        C440   1.557       .  S
C437        C473   1.561       .  S
C438        C456   1.559       .  S
C439        C474   1.561       .  S
C440        C454   1.572       .  S
C440        C526   1.403       .  S
O441        C451   1.279       .  A
O441        V449   1.927       .  S
O442        C452   1.277       .  A
O443        C453   1.274       .  A
O444        C454   1.270       .  A
O444        V449   1.945       .  S
O445        C454   1.283       .  A
O445        V450   1.928       .  S
O446        C453   1.278       .  A
O447        C452   1.271       .  A
O448        C451   1.274       .  A
O448        V450   1.948       .  S
V449        V450   2.073       .  T
C451        C456   1.569       .  S
C453        C455   1.574       .  S
C455        C468   1.567       .  S
C455        C523   1.414       .  S
C456        C469   1.571       .  S
C456        C522   1.389       .  S
O457        C467   1.278       .  A
O457        V993   1.910   1_455  S
O458        C468   1.283       .  A
O458        V465   1.934       .  S
O459        C469   1.271       .  A
O459        V465   1.939       .  S
O460        C470   1.276       .  A
O460        V993   1.962   1_455  S
O461        C470   1.279       .  A
O461        V994   1.915   1_455  S
O462        C469   1.281       .  A
O462        V466   1.929       .  S
O463        C468   1.268       .  A
O463        V466   1.938       .  S
O464        C467   1.271       .  A
O464        V994   1.946   1_455  S
V465        O985   1.929       .  S
V465        O988   1.942       .  S
V465        V466   2.072       .  T
V466        O989   1.925       .  S
V466        O992   1.926       .  S
C467        C473   1.566       .  S
C470        C472   1.585       .  S
C471        C486   1.583       .  S
C471        C519   1.418       .  S
C472        C487   1.573       .  S
C472        C517   1.417       .  S
C473        C485   1.561       .  S
C473        C516   1.423       .  S
C474        C488   1.545       .  S
C474        C514   1.412       .  S
O475        C485   1.277       .  A
O475        V483   1.926       .  S
O476        C486   1.281       .  A
O477        C487   1.272       .  A
O478        C488   1.266       .  A
O478        V483   1.909       .  S
O479        C488   1.274       .  A
O479        V484   1.921       .  S
O480        C487   1.280       .  A
O481        C486   1.274       .  A
O482        C485   1.270       .  A
O482        V484   1.932       .  S
V483        V484   2.077       .  T
C489        C521   1.363       .  S
C489        C490   1.504       .  S
C489        C495   1.505       .  S
C489        C493   1.503   1_565  S
C490        H497   1.081       .  S
C490        C887   1.350       .  D
C491        C886   1.353   1_455  D
C491        C518   1.371       .  S
C492       C1024   1.524   1_455  S
C492        H498   1.112       .  S
C493        C758   1.347       .  D
C494        C757   1.346       .  D
C494        C513   1.367       .  S
C496       C1020   1.519       .  S
C496        C528   1.381       .  S
C501        C525   1.375       .  S
C501        C502   1.501       .  S
C501        C507   1.502       .  S
C501        C505   1.502       .  S
C502        H509   1.075       .  S
C502        C503   1.351       .  D
C503        C504   1.525       .  S
C503        C520   1.374       .  S
C504        C508   1.517       .  S
C504        C506   1.520       .  S
C504        H510   1.111       .  S
C505        H511   1.066       .  S
C505        C506   1.349       .  D
C506        C515   1.378       .  S
C507        H512   1.072       .  S
C507        C508   1.349       .  D
C508        C524   1.370       .  S
C513        C514   1.170       .  T
C515        C516   1.177       .  T
C517        C518   1.171       .  T
C519        C520   1.175       .  T
C521        C522   1.151       .  T
C523        C524   1.172       .  T
C525        C526   1.157       .  T
C527        C528   1.178       .  T
O529        C539   1.279       .  A
O530        C540   1.277       .  A
O530        V537   1.924       .  S
O531        C541   1.273       .  A
O531        V537   1.943       .  S
O532        C542   1.271       .  A
O533        C542   1.277       .  A
O533        V538   1.918       .  S
O534        C541   1.277       .  A
O535        C540   1.273       .  A
O536        C539   1.269       .  A
O536        V538   1.942       .  S
C539        C543   1.564       .  S
C540        C606   1.560       .  S
C541        C603   1.565       .  S
C542        C572   1.558       .  S
C543        C554   1.559       .  S
C543        C584   1.560       .  S
C543        C659   1.422       .  S
O544        C554   1.276       .  A
O544        V552   1.925   1_545  S
O545        C555   1.282       .  A
O545        V816   1.938       .  S
O546        C556   1.269       .  A
O546        V816   1.944       .  S
O547        C557   1.271       .  A
O547        V552   1.950   1_545  S
O548        C557   1.283       .  A
O548        V553   1.934   1_545  S
O549        C556   1.284       .  A
O549        V817   1.925       .  S
O550        C555   1.273       .  A
O550        V817   1.955       .  S
O551        C554   1.270       .  A
O551        V553   1.933   1_545  S
V552        O809   1.911       .  S
V552        O810   1.911       .  S
V552        V553   2.077       .  T
V553        O813   1.925       .  S
V553        O814   1.932       .  S
C555        C604   1.579       .  S
C556        C587   1.573       .  S
C557        C603   1.574       .  S
O558        C568   1.281       .  A
O558        V830   1.922       .  S
O559        C569   1.279       .  A
O559        V566   1.936       .  S
O560        C570   1.268       .  A
O560        V566   1.936       .  S
O561        C571   1.265       .  A
O561        V830   1.936       .  S
O562        C571   1.283       .  A
O562        V831   1.914   1_545  S
O563        C570   1.280       .  A
O563        V567   1.925       .  S
O564        C569   1.271       .  A
O564        V567   1.939       .  S
O565        C568   1.265       .  A
O565        V831   1.924   1_545  S
V566        O822   1.940       .  S
V566        O825   1.942       .  S
V566        V567   2.076       .  T
V567        O826   1.936       .  S
V567        O829   1.954       .  S
C568        C572   1.559       .  S
C569        C605   1.567       .  S
C570        C588   1.559       .  S
C571        C606   1.565       .  S
C572        C586   1.576       .  S
C572        C658   1.404       .  S
O573        C583   1.279       .  A
O573        V581   1.930   1_554  S
O574        C584   1.277       .  A
O574        V713   1.928       .  S
O575        C585   1.273       .  A
O575        V713   1.944       .  S
O576        C586   1.271       .  A
O576        V581   1.949   1_554  S
O577        C586   1.283       .  A
O577        V582   1.932   1_554  S
O578        C585   1.278       .  A
O578        V714   1.937       .  S
O579        C584   1.270       .  A
O579        V714   1.936       .  S
O580        C583   1.274       .  A
O580        V582   1.948   1_554  S
V581        O706   1.920       .  S
V581        O707   1.933       .  S
V581        V582   2.072       .  T
V582        O710   1.942       .  S
V582        O711   1.939       .  S
C583        C588   1.570       .  S
C585        C587   1.574       .  S
C587        C600   1.566       .  S
C587        C655   1.415       .  S
C588        C601   1.572       .  S
C588        C654   1.393       .  S
O589        C599   1.280       .  A
O590        C600   1.282       .  A
O590        V597   1.933       .  S
O591        C601   1.271       .  A
O591        V597   1.940       .  S
O592        C602   1.275       .  A
O593        C602   1.278       .  A
O594        C601   1.281       .  A
O594        V598   1.930       .  S
O595        C600   1.268       .  A
O595        V598   1.939       .  S
O596        C599   1.270       .  A
V597        V598   2.072       .  T
C599        C605   1.571       .  S
C602        C604   1.580       .  S
C603        C618   1.579       .  S
C603        C651   1.420       .  S
C604        C619   1.570       .  S
C604        C649   1.417       .  S
C605        C617   1.560       .  S
C605        C648   1.422       .  S
C606        C620   1.552       .  S
C606        C646   1.415       .  S
O607        C617   1.277       .  A
O607        V615   1.922       .  S
O608        C618   1.281       .  A
O608        V747   1.917       .  S
O609        C619   1.271       .  A
O609        V747   1.945       .  S
O610        C620   1.266       .  A
O610        V615   1.914       .  S
O611        C620   1.276       .  A
O611        V616   1.928   1_554  S
O612        C619   1.280       .  A
O612        V748   1.934       .  S
O613        C618   1.274       .  A
O613        V748   1.957       .  S
O614        C617   1.270       .  A
O614        V616   1.935   1_554  S
V615        O740   1.910   1_554  S
V615        O741   1.950   1_554  S
V615        V616   2.076   1_554  T
V616        O744   1.934       .  S
V616        O745   1.928       .  S
C621        C653   1.368       .  S
C621        C622   1.504   1_655  S
C621        C627   1.506   1_554  S
C621        C625   1.503       .  S
C622        H629   1.081       .  S
C623        C888   1.514       .  S
C623        C650   1.372       .  S
C624        C887   1.528   1_545  S
C624        C758   1.523       .  S
C624        H630   1.112       .  S
C625        H895   1.075       .  S
C626        C756   1.518   1_554  S
C626        C645   1.370       .  S
C627        H896   1.072       .  S
C627       C1024   1.348       .  D
C628       C1023   1.348   1_545  D
C628        C660   1.378       .  S
H631        C889   1.075       .  S
H632        C891   1.077       .  S
C633        C657   1.376       .  S
C633        C634   1.503       .  S
C633        C639   1.502       .  S
C633        C637   1.503       .  S
C634        H641   1.075       .  S
C634        C635   1.351       .  D
C635        C636   1.524       .  S
C635        C652   1.375       .  S
C636        C640   1.520       .  S
C636        C638   1.519       .  S
C636        H642   1.111       .  S
C637        H643   1.066       .  S
C637        C638   1.349       .  D
C638        C647   1.377       .  S
C639        H644   1.074       .  S
C639        C640   1.349       .  D
C640        C656   1.371       .  S
C645        C646   1.173       .  T
C647        C648   1.176       .  T
C649        C650   1.172       .  T
C651        C652   1.175       .  T
C653        C654   1.153       .  T
C655        C656   1.173       .  T
C657        C658   1.158       .  T
C659        C660   1.176       .  T
O661        C671   1.281       .  A
O662        C672   1.283       .  A
O662        V669   1.938       .  S
O663        C673   1.265       .  A
O663        V669   1.925       .  S
O664        C674   1.273       .  A
O665        C674   1.281       .  A
O665        V670   1.931       .  S
O666        C673   1.281       .  A
O667        C672   1.264       .  A
O668        C671   1.265       .  A
O668        V670   1.926       .  S
C671        C675   1.552       .  S
C672        C738   1.554       .  S
C673        C735   1.557       .  S
C674        C704   1.576       .  S
C675        C686   1.561       .  S
C675        C716   1.565       .  S
C675        C791   1.413       .  S
O676        C686   1.277       .  A
O676        V684   1.929   1_545  S
O677        C687   1.281       .  A
O677        V948   1.921       .  S
O678        C688   1.265       .  A
O678        V948   1.924       .  S
O679        C689   1.271       .  A
O679        V684   1.944   1_545  S
O680        C689   1.279       .  A
O680        V685   1.928   1_545  S
O681        C688   1.282       .  A
O681        V949   1.916       .  S
O682        C687   1.274       .  A
O682        V949   1.957       .  S
O683        C686   1.270       .  A
O683        V685   1.932   1_545  S
V684        O941   1.929       .  S
V684        O942   1.940       .  S
V684        V685   2.078       .  T
V685        O945   1.928       .  S
V685        O946   1.935       .  S
C687        C736   1.581       .  S
C688        C719   1.567       .  S
C689        C735   1.564       .  S
O690        C700   1.279       .  A
O690        V962   1.928       .  S
O691        C701   1.277       .  A
O691        V698   1.937       .  S
O692        C702   1.270       .  A
O692        V698   1.932       .  S
O693        C703   1.269       .  A
O693        V962   1.934       .  S
O694        C703   1.280       .  A
O694        V963   1.938   1_545  S
O695        C702   1.279       .  A
O695        V699   1.925       .  S
O696        C701   1.272       .  A
O696        V699   1.937       .  S
O697        C700   1.274       .  A
O697        V963   1.949   1_545  S
V698        O954   1.932       .  S
V698        O957   1.950       .  S
V698        V699   2.073       .  T
V699        O958   1.915       .  S
V699        O961   1.932       .  S
C700        C704   1.570       .  S
C701        C737   1.566       .  S
C702        C720   1.557       .  S
C703        C738   1.566       .  S
C704        C718   1.563       .  S
C704        C790   1.391       .  S
O705        C715   1.282       .  A
O705        V713   1.935       .  S
O706        C716   1.282       .  A
O707        C717   1.269       .  A
O708        C718   1.269       .  A
O708        V713   1.940       .  S
O709        C718   1.281       .  A
O709        V714   1.923       .  S
O710        C717   1.282       .  A
O711        C716   1.268       .  A
O712        C715   1.274       .  A
O712        V714   1.954       .  S
V713        V714   2.076       .  T
C715        C720   1.579       .  S
C717        C719   1.569       .  S
C719        C732   1.558       .  S
C719        C787   1.410       .  S
C720        C733   1.574       .  S
C720        C786   1.395       .  S
O721        C731   1.280       .  A
O722        C732   1.284       .  A
O722        V729   1.939       .  S
O723        C733   1.266       .  A
O723        V729   1.933       .  S
O724        C734   1.272       .  A
O725        C734   1.278       .  A
O726        C733   1.285       .  A
O726        V730   1.942       .  S
O727        C732   1.265       .  A
O727        V730   1.926       .  S
O728        C731   1.273       .  A
V729        V730   2.077       .  T
C731        C737   1.576       .  S
C734        C736   1.565       .  S
C735        C750   1.551       .  S
C735        C783   1.417       .  S
C736        C751   1.575       .  S
C736        C781   1.418       .  S
C737        C749   1.564       .  S
C737        C780   1.425       .  S
C738        C752   1.563       .  S
C738        C778   1.410       .  S
O739        C749   1.280       .  A
O739        V747   1.924       .  S
O740        C750   1.278       .  A
O741        C751   1.270       .  A
O742        C752   1.264       .  A
O742        V747   1.919       .  S
O743        C752   1.281       .  A
O743        V748   1.913       .  S
O744        C751   1.284       .  A
O745        C750   1.267       .  A
O746        C749   1.269       .  A
O746        V748   1.943       .  S
V747        V748   2.075       .  T
C753        C785   1.370       .  S
C753        C754   1.506       .  S
C753        C759   1.505       .  S
C753        C757   1.509   1_655  S
C754        H761   1.081       .  S
C755       C1020   1.525   1_554  S
C755        C782   1.373   1_554  S
C756       C1019   1.516   1_545  S
C756        H762   1.112       .  S
C757       H1027   1.078       .  S
C758        C777   1.366       .  S
C759       H1028   1.079       .  S
C759        C892   1.349       .  D
C760        C891   1.350   1_556  D
C760        C792   1.367       .  S
H763       C1021   1.076       .  S
H764       C1023   1.065       .  S
C765        C789   1.365       .  S
C765        C766   1.504       .  S
C765        C771   1.502       .  S
C765        C769   1.504       .  S
C766        H773   1.081       .  S
C766        C767   1.349       .  D
C767        C768   1.528       .  S
C767        C784   1.374       .  S
C768        C772   1.522       .  S
C768        C770   1.521       .  S
C768        H774   1.112       .  S
C769        H775   1.067       .  S
C769        C770   1.349       .  D
C770        C779   1.382       .  S
C771        H776   1.078       .  S
C771        C772   1.348       .  D
C772        C788   1.366       .  S
C777        C778   1.171       .  T
C779        C780   1.180       .  T
C781        C782   1.174       .  T
C783        C784   1.175       .  T
C785        C786   1.155       .  T
C787        C788   1.171       .  T
C789        C790   1.152       .  T
C791        C792   1.172       .  T
O793        C803   1.283       .  A
O794        C804   1.282       .  A
O794        V801   1.933       .  S
O795        C805   1.269       .  A
O795        V801   1.943       .  S
O796        C806   1.265       .  A
O797        C806   1.285       .  A
O797        V802   1.940   1_655  S
O798        C805   1.283       .  A
O799        C804   1.269       .  A
O800        C803   1.267       .  A
O800        V802   1.929   1_655  S
C803        C807   1.567       .  S
C804        C870   1.566       .  S
C805        C867   1.570       .  S
C806        C836   1.572       .  S
C807        C818   1.570       .  S
C807        C848   1.566       .  S
C807        C923   1.405       .  S
O808        C818   1.283       .  A
O808        V816   1.938       .  S
O809        C819   1.279       .  A
O810        C820   1.266       .  A
O811        C821   1.272       .  A
O811        V816   1.942       .  S
O812        C821   1.279       .  A
O812        V817   1.935       .  S
O813        C820   1.275       .  A
O814        C819   1.268       .  A
O815        C818   1.268       .  A
O815        V817   1.938       .  S
V816        V817   2.074       .  T
C819        C868   1.556       .  S
C820        C851   1.549       .  S
C821        C867   1.566       .  S
O822        C832   1.283       .  A
O823        C833   1.281       .  A
O823        V830   1.915   1_565  S
O824        C834   1.273       .  A
O824        V830   1.946   1_565  S
O825        C835   1.272       .  A
O826        C835   1.278       .  A
O827        C834   1.281       .  A
O827        V831   1.934       .  S
O828        C833   1.268       .  A
O828        V831   1.938       .  S
O829        C832   1.273       .  A
V830        V831   2.075   1_545  T
C832        C836   1.582       .  S
C833        C869   1.565       .  S
C834        C852   1.575       .  S
C835        C870   1.572       .  S
C836        C850   1.557       .  S
C836        C922   1.392       .  S
O837        C847   1.287       .  A
O837        V845   1.939       .  S
O838        C848   1.282       .  A
O838        V977   1.918       .  S
O839        C849   1.264       .  A
O839        V977   1.934       .  S
O840        C850   1.271       .  A
O840        V845   1.932       .  S
O841        C850   1.278       .  A
O841        V846   1.923   1_554  S
O842        C849   1.284       .  A
O842        V978   1.915       .  S
O843        C848   1.268       .  A
O843        V978   1.937       .  S
O844        C847   1.268       .  A
O844        V846   1.939   1_554  S
V845        O970   1.939   1_554  S
V845        O971   1.950   1_554  S
V845        V846   2.071   1_554  T
V846        O974   1.916       .  S
V846        O975   1.936       .  S
C847        C852   1.582       .  S
C849        C851   1.564       .  S
C851        C864   1.560       .  S
C851        C919   1.412       .  S
C852        C865   1.566       .  S
C852        C918   1.406       .  S
O853        C863   1.282       .  A
O854        C864   1.278       .  A
O854        V861   1.926       .  S
O855        C865   1.268       .  A
O855        V861   1.936       .  S
O856        C866   1.267       .  A
O857        C866   1.280       .  A
O858        C865   1.283       .  A
O858        V862   1.931       .  S
O859        C864   1.272       .  A
O859        V862   1.940       .  S
O860        C863   1.267       .  A
V861        V862   2.069       .  T
C863        C869   1.561       .  S
C866        C868   1.561       .  S
C867        C882   1.559       .  S
C867        C915   1.411       .  S
C868        C883   1.565       .  S
C868        C913   1.417       .  S
C869        C881   1.568       .  S
C869        C912   1.407       .  S
C870        C884   1.571       .  S
C870        C910   1.412       .  S
O871        C881   1.281       .  A
O871        V879   1.938       .  S
O872        C882   1.280       .  A
O872       V1011   1.931       .  S
O873        C883   1.271       .  A
O873       V1011   1.944       .  S
O874        C884   1.268       .  A
O874        V879   1.943       .  S
O875        C884   1.284       .  A
O875        V880   1.924       .  S
O876        C883   1.280       .  A
O876       V1012   1.931       .  S
O877        C882   1.268       .  A
O877       V1012   1.934       .  S
O878        C881   1.268       .  A
O878        V880   1.937       .  S
V879       O1004   1.937   1_554  S
V879       O1005   1.944   1_554  S
V879        V880   2.075       .  T
V880       O1008   1.936   1_554  S
V880       O1009   1.957   1_554  S
C885        C917   1.379       .  S
C885        C886   1.508   1_554  S
C885        C891   1.507   1_565  S
C885        C889   1.505   1_655  S
C886        H893   1.078       .  S
C887        C914   1.375       .  S
C888       C1022   1.515       .  S
C888        H894   1.109       .  S
C890       C1020   1.517   1_554  S
C890        C909   1.368       .  S
C892        C924   1.360       .  S
C897        C921   1.367       .  S
C897        C898   1.506       .  S
C897        C903   1.508       .  S
C897        C901   1.505       .  S
C898        H905   1.080       .  S
C898        C899   1.350       .  D
C899        C900   1.515       .  S
C899        C916   1.368       .  S
C900        C904   1.517       .  S
C900        C902   1.517       .  S
C900        H906   1.113       .  S
C901        H907   1.081       .  S
C901        C902   1.350       .  D
C902        C911   1.361       .  S
C903        H908   1.077       .  S
C903        C904   1.346       .  D
C904        C920   1.368       .  S
C909        C910   1.171       .  T
C911        C912   1.169       .  T
C913        C914   1.176       .  T
C915        C916   1.170       .  T
C917        C918   1.160       .  T
C919        C920   1.171       .  T
C921        C922   1.154       .  T
C923        C924   1.168       .  T
O925        C935   1.279       .  A
O926        C936   1.275       .  A
O926        V933   1.921       .  S
O927        C937   1.276       .  A
O927        V933   1.961       .  S
O928        C938   1.268       .  A
O929        C938   1.282       .  A
O929        V934   1.931   1_655  S
O930        C937   1.279       .  A
O931        C936   1.276       .  A
O932        C935   1.273       .  A
O932        V934   1.947   1_655  S
C935        C939   1.574       .  S
C936       C1002   1.571       .  S
C937        C999   1.584       .  S
C938        C968   1.564       .  S
C939        C950   1.565       .  S
C939        C980   1.565       .  S
C939       C1055   1.424       .  S
O940        C950   1.281       .  A
O940        V948   1.925       .  S
O941        C951   1.279       .  A
O942        C952   1.271       .  A
O943        C953   1.272       .  A
O943        V948   1.947       .  S
O944        C953   1.280       .  A
O944        V949   1.938       .  S
O945        C952   1.278       .  A
O946        C951   1.269       .  A
O947        C950   1.269       .  A
O947        V949   1.943       .  S
V948        V949   2.075       .  T
C951       C1000   1.557       .  S
C952        C983   1.560       .  S
C953        C999   1.574       .  S
O954        C964   1.286       .  A
O955        C965   1.281       .  A
O955        V962   1.918   1_565  S
O956        C966   1.270       .  A
O956        V962   1.945   1_565  S
O957        C967   1.272       .  A
O958        C967   1.279       .  A
O959        C966   1.283       .  A
O959        V963   1.927       .  S
O960        C965   1.267       .  A
O960        V963   1.935       .  S
O961        C964   1.267       .  A
V962        V963   2.073   1_545  T
C964        C968   1.574       .  S
C965       C1001   1.560       .  S
C966        C984   1.573       .  S
C967       C1002   1.575       .  S
C968        C982   1.573       .  S
C968       C1054   1.407       .  S
O969        C979   1.281       .  A
O969        V977   1.922       .  S
O970        C980   1.278       .  A
O971        C981   1.272       .  A
O972        C982   1.271       .  A
O972        V977   1.942       .  S
O973        C982   1.282       .  A
O973        V978   1.934       .  S
O974        C981   1.279       .  A
O975        C980   1.271       .  A
O976        C979   1.265       .  A
O976        V978   1.922       .  S
V977        V978   2.075       .  T
C979        C984   1.555       .  S
C981        C983   1.572       .  S
C983        C996   1.569       .  S
C983       C1051   1.415       .  S
C984        C997   1.559       .  S
C984       C1050   1.404       .  S
O985        C995   1.281       .  A
O986        C996   1.274       .  A
O986        V993   1.918       .  S
O987        C997   1.272       .  A
O987        V993   1.941       .  S
O988        C998   1.269       .  A
O989        C998   1.283       .  A
O990        C997   1.277       .  A
O990        V994   1.919       .  S
O991        C996   1.277       .  A
O991        V994   1.955       .  S
O992        C995   1.265       .  A
V993        V994   2.075       .  T
C995       C1001   1.552       .  S
C998       C1000   1.569       .  S
C999       C1014   1.581       .  S
C999       C1047   1.416       .  S
C1000      C1015   1.569       .  S
C1000      C1045   1.415       .  S
C1001      C1013   1.560       .  S
C1001      C1044   1.413       .  S
C1002      C1016   1.562       .  S
C1002      C1042   1.413       .  S
O1003      C1013   1.278       .  A
O1003      V1011   1.931       .  S
O1004      C1014   1.282       .  A
O1005      C1015   1.272       .  A
O1006      C1016   1.270       .  A
O1006      V1011   1.941       .  S
O1007      C1016   1.279       .  A
O1007      V1012   1.928       .  S
O1008      C1015   1.278       .  A
O1009      C1014   1.273       .  A
O1010      C1013   1.268       .  A
O1010      V1012   1.930       .  S
V1011      V1012   2.078       .  T
C1017      C1049   1.375       .  S
C1017      C1018   1.500   1_655  S
C1017      C1023   1.502       .  S
C1017      C1021   1.503   1_565  S
C1018      H1025   1.073       .  S
C1019      C1046   1.373       .  S
C1020      H1026   1.111       .  S
C1022      C1041   1.367       .  S
C1024      C1056   1.380       .  S
C1029      C1053   1.379       .  S
C1029      C1030   1.507       .  S
C1029      C1035   1.506       .  S
C1029      C1033   1.506       .  S
C1030      H1037   1.078       .  S
C1030      C1031   1.354       .  D
C1031      C1032   1.514       .  S
C1031      C1048   1.371       .  S
C1032      C1036   1.514       .  S
C1032      C1034   1.514       .  S
C1032      H1038   1.110       .  S
C1033      H1039   1.078       .  S
C1033      C1034   1.349       .  D
C1034      C1043   1.367       .  S
C1035      H1040   1.074       .  S
C1035      C1036   1.346       .  D
C1036      C1052   1.369       .  S
C1041      C1042   1.170       .  T
C1043      C1044   1.171       .  T
C1045      C1046   1.173       .  T
C1047      C1048   1.171       .  T
C1049      C1050   1.157       .  T
C1051      C1052   1.170       .  T
C1053      C1054   1.161       .  T
C1055      C1056   1.179       .  T
