geometry optimzed in LAMMPS
_audit_creation_date              2020-12-01 
_audit_creation_method            'lammps2cif' 
_symmetry_space_group_name_H-M    'P1' 
_symmetry_Int_Tables_number       1 
_symmetry_cell_setting            triclinic 
loop_ 
_symmetry_equiv_pos_as_xyz 
  x,y,z 
_cell_length_a                    56.05523377 
_cell_length_b                    55.93544764681245 
_cell_length_c                    55.98438344657148 
_cell_angle_alpha                 89.97380089509105 
_cell_angle_beta                  90.0343419568707 
_cell_angle_gamma                 90.00979163570504 
loop_ 
_atom_site_label 
_atom_site_type_symbol 
_atom_site_fract_x 
_atom_site_fract_y 
_atom_site_fract_z 
_atom_site_charge 
C1          C  0.06824871  0.69714323  0.94081002     0.80300
N2          N  0.05516715  0.68318849  0.95572884    -0.78000
C3          C  0.03573719  0.67127030  0.94727583     0.82800
N4          N  0.02902745  0.67367727  0.92401093    -0.77900
C5          C  0.04191395  0.68788265  0.90916985     0.82800
N6          N  0.06151743  0.69924115  0.91767540    -0.79700
C7          C  0.89455635  0.70240566  0.95508447     0.80300
N8          N  0.90642039  0.68394395  0.96535423    -0.78000
C9          C  0.92964018  0.67984129  0.95973064     0.82800
N10         N  0.94122272  0.69452133  0.94414589    -0.77900
C11         C  0.92929048  0.71285212  0.93354430     0.82800
N12         N  0.90606263  0.71656201  0.93919365    -0.79700
C13         C  0.93198211  0.70256813  0.10621428     0.80300
N14         N  0.92171513  0.72104627  0.09462416    -0.78000
C15         C  0.92167845  0.72273003  0.07053162     0.82800
N16         N  0.93201553  0.70493382  0.05750108    -0.77900
C17         C  0.94241073  0.68596901  0.06897389     0.82800
N18         N  0.94246097  0.68492352  0.09335113    -0.79700
C19         C  0.04777546  0.70626449  0.09186935     0.80300
N20         N  0.07148716  0.70812778  0.08757980    -0.78000
C21         C  0.08235514  0.69492195  0.07048498     0.82800
N22         N  0.06914235  0.67918023  0.05758008    -0.77900
C23         C  0.04524849  0.67721568  0.06153190     0.82800
N24         N  0.03453041  0.69082478  0.07861772    -0.79700
C25         C  0.91106848  0.51080713  0.11179104     0.80300
N26         N  0.89115851  0.50212999  0.10112975    -0.78000
C27         C  0.88717287  0.50541361  0.07751437     0.82800
N28         N  0.90322335  0.51775987  0.06421931    -0.77900
C29         C  0.92318687  0.52677666  0.07471943     0.82800
N30         N  0.92702398  0.52342785  0.09852252    -0.79700
C31         C  0.88968287  0.49293802  0.95785292     0.80300
N32         N  0.89936513  0.48321882  0.93800805    -0.72600
C33         C  0.92081639  0.49020762  0.92958904     0.82800
N34         N  0.93316023  0.50748560  0.94161172    -0.77900
C35         C  0.92379959  0.51722511  0.96201942     0.82800
N36         N  0.90186690  0.51018905  0.96983701    -0.79700
C37         C  0.05616996  0.47672118  0.96417233     0.80300
N38         N  0.04782441  0.46971961  0.94254588    -0.78000
C39         C  0.03066873  0.48236049  0.93113797     0.82800
N40         N  0.02183670  0.50250383  0.94131735    -0.77900
C41         C  0.02964216  0.50942506  0.96324280     0.82800
N42         N  0.04674365  0.49648357  0.97475173    -0.79700
C43         C  0.04115868  0.48699080  0.09525971     0.80300
N44         N  0.06508548  0.48564138  0.09217431    -0.78000
C45         C  0.07656577  0.49961086  0.07615411     0.82800
N46         N  0.06380825  0.51560227  0.06304998    -0.77900
C47         C  0.03967995  0.51716630  0.06587771     0.82800
N48         N  0.02837843  0.50276189  0.08190422    -0.79700
O49         O  0.02536962  0.63198871  0.95721529    -0.75200
O50         O  0.01193776  0.66260783  0.98068021    -0.54100
C51         C  0.02340205  0.65426521  0.96266564     0.78500
O52         O  0.93095267  0.55792156  0.97040380    -0.59800
O53         O  0.95278657  0.52967582  0.99028895    -0.52800
C54         C  0.93670274  0.53609532  0.97509542     0.70500
O55         O  0.93396372  0.63906334  0.96908173    -0.74400
O56         O  0.96072613  0.66612756  0.98391918    -0.54900
C57         C  0.94236292  0.66038689  0.97150329     0.76500
O58         O  0.02373144  0.55102632  0.96562666    -0.59500
O59         O  0.00500891  0.52645180  0.99239724    -0.52600
C60         C  0.01895478  0.53034838  0.97461500     0.73100
Zr61       Zr  0.01442431  0.59304730  0.97384116     2.54700
O62         O  0.00748072  0.58891563  0.93113762    -0.80100
O63         O  0.05734656  0.58897112  0.96808107    -0.93500
Zr64       Zr  0.94427349  0.59830847  0.98146677     2.64700
O65         O  0.93883411  0.59797419  0.93829441    -0.98400
O66         O  0.90142171  0.60040623  0.98806363    -0.80500
O67         O  0.98088650  0.61883867  0.97580144    -0.83900
O68         O  0.97786774  0.57260558  0.97897665    -2.18600
O69         O  0.03539294  0.55702024  0.05385171    -0.67300
O70         O  0.00635126  0.53029921  0.04334295    -0.51800
C71         C  0.02627709  0.53591957  0.05339720     0.71500
O72         O  0.94815065  0.64471291  0.06416101    -0.60200
O73         O  0.96347386  0.66983758  0.03593441    -0.52100
C74         C  0.95202492  0.66564606  0.05540262     0.73300
O75         O  0.93712700  0.56523913  0.06683978    -0.71600
O76         O  0.95149533  0.53432665  0.04434971    -0.50200
C77         C  0.93849285  0.54302129  0.06119970     0.74700
O78         O  0.03778904  0.63701627  0.05318838    -0.66900
O79         O  0.01433538  0.66534675  0.03548626    -0.54100
C80         C  0.03160160  0.65875839  0.04913140     0.73100
Zr81       Zr  0.02271820  0.59740634  0.04366819     2.77500
O82         O  0.02822763  0.59963082  0.08677839    -0.97600
O83         O  0.06505164  0.59653228  0.03414711    -0.78500
Zr84       Zr  0.95247532  0.60300191  0.05191578     2.70100
O85         O  0.95813619  0.60177079  0.09502819    -0.79700
O86         O  0.90964553  0.60985052  0.05532840    -0.98800
Zr87       Zr  0.98655750  0.64370115  0.01003124     2.21500
Zr88       Zr  0.97980083  0.55200355  0.01638195     2.11100
O89         O  0.98597561  0.57714866  0.05026037    -2.47500
O90         O  0.98927608  0.62311597  0.04697988    -0.79500
O91         O  0.01681084  0.57206897  0.01050327    -0.71700
O92         O  0.94936317  0.62367700  0.01513774    -2.32600
O93         O  0.02086746  0.61859710  0.00712943    -2.28900
O94         O  0.94581509  0.57755233  0.01849865    -0.73500
H95         H  0.97621202  0.56163498  0.96575913     0.78500
H96         H  0.93639733  0.63504194  0.01597302     0.79600
H97         H  0.98683106  0.56786929  0.06480956     0.81900
H98         H  0.03524679  0.62786290  0.00497838     0.79500
H99         H  0.89960032  0.61060283  0.00239479     0.42500
H100        H  0.90681874  0.61187457  0.07266562     0.41500
H101        H  0.94525851  0.61194623  0.10157611     0.41100
H102        H  0.01455645  0.60929597  0.09245264     0.39100
H103        H  0.07312313  0.59550722  0.04984165     0.42200
H104        H  0.06407208  0.58875003  0.98442759     0.37000
H105        H  0.99412605  0.59998415  0.92772484     0.43100
H106        H  0.94873889  0.58448586  0.93257885     0.39500
H107        H  0.02487963  0.58330505  0.09271843     0.44500
H108        H  0.06271873  0.60436599  0.96122609     0.43200
H109        H  0.92217997  0.59256477  0.93590376     0.43300
H110        H  0.90690180  0.62594368  0.04848327     0.43700
C111        C  0.57981404  0.04672110  0.11633010     0.80300
N112        N  0.59751559  0.03345498  0.10665590    -0.78000
C113        C  0.59955445  0.03067419  0.08269911     0.82800
N114        N  0.58333248  0.04135381  0.06809053    -0.77900
C115        C  0.56521831  0.05446727  0.07759029     0.82800
N116        N  0.56355671  0.05724984  0.10173744    -0.79700
C117        C  0.58556820  0.03692149  0.92754311     0.80300
N118        N  0.59208048  0.01529033  0.93638670    -0.78000
C119        C  0.58386941  0.00729960  0.95771783     0.82800
N120        N  0.56878282  0.02129042  0.97052428    -0.77900
C121        C  0.56209979  0.04305101  0.96196317     0.82800
N122        N  0.57044487  0.05085948  0.94047091    -0.79700
C123        C  0.58934324  0.19385510  0.96394448     0.80300
N124        N  0.60460068  0.18303939  0.94878050    -0.78000
C125        C  0.60092944  0.16046728  0.94106909     0.82800
N126        N  0.58171047  0.14809236  0.94919647    -0.77900
C127        C  0.56586939  0.15882131  0.96424147     0.82800
N128        N  0.56964270  0.18182724  0.97159489    -0.79700
C129        C  0.59502760  0.19181350  0.06746389     0.80300
N130        N  0.60744432  0.18003410  0.08450807    -0.78000
C131        C  0.60152833  0.15764820  0.09141570     0.82800
N132        N  0.58293386  0.14651207  0.08053514    -0.77900
C133        C  0.57006827  0.15820272  0.06346757     0.82800
N134        N  0.57590570  0.18100699  0.05712477    -0.79700
C135        C  0.36891168  0.18013362  0.96188914     0.80300
N136        N  0.38671863  0.16830386  0.97341344    -0.78000
C137        C  0.40235683  0.15442275  0.96096210     0.82800
N138        N  0.39992356  0.15205374  0.93676219    -0.77900
C139        C  0.38183800  0.16354690  0.92514534     0.82800
N140        N  0.36672069  0.17749963  0.93792892    -0.79700
C141        C  0.37501999  0.05082197  0.93112701     0.80300
N142        N  0.39349114  0.06133055  0.94285520    -0.78000
C143        C  0.40088914  0.05224643  0.96421906     0.82800
N144        N  0.38984451  0.03274797  0.97370974    -0.77900
C145        C  0.37116534  0.02263404  0.96201709     0.82800
N146        N  0.36402234  0.03166809  0.94081959    -0.79700
C147        C  0.37914119  0.04198617  0.10652034     0.80300
N148        N  0.39677939  0.05435939  0.09525129    -0.78000
C149        C  0.40437154  0.04747497  0.07313843     0.82800
N150        N  0.39463142  0.02770778  0.06251555    -0.77900
C151        C  0.37694036  0.01529620  0.07376401     0.82800
N152        N  0.36938973  0.02271978  0.09548945    -0.79700
C153        C  0.39672081  0.20091253  0.08580045     0.80300
N154        N  0.38662886  0.19127085  0.10548799    -0.78000
C155        C  0.38771314  0.16748776  0.10972342     0.82800
N156        N  0.39943250  0.15296606  0.09413702    -0.77900
C157        C  0.41001838  0.16258030  0.07441760     0.82800
N158        N  0.40863389  0.18652957  0.07035996    -0.79700
O159        O  0.52497069  0.06096021  0.06881065    -0.75200
O160        O  0.55298280  0.07655405  0.04356746    -0.54100
C161        C  0.54662824  0.06454564  0.06215656     0.78500
O162        O  0.44198659  0.05696355  0.97118879    -0.59800
O163        O  0.41538354  0.07859393  0.99339602    -0.52800
C164        C  0.42070478  0.06336597  0.97705207     0.70500
O165        O  0.52224996  0.05194408  0.97073949    -0.74400
O166        O  0.55165048  0.07301882  0.98959346    -0.54900
C167        C  0.54425887  0.05698119  0.97491409     0.76500
O168        O  0.44502892  0.05654645  0.06663570    -0.59500
O169        O  0.41686903  0.07723860  0.04558048    -0.52600
C170        C  0.42325522  0.06130212  0.06097985     0.73100
Zr171      Zr  0.48485131  0.07079762  0.05528442     2.54700
O172        O  0.48687604  0.02788128  0.06220469    -0.80100
O173        O  0.48247979  0.07959301  0.09783100    -0.93500
Zr174      Zr  0.48287539  0.06479323  0.98438065     2.64700
O175        O  0.48152839  0.02193708  0.99187323    -0.98400
O176        O  0.48182466  0.05761941  0.94151942    -0.80500
O177        O  0.50701200  0.06600044  0.01926071    -0.83900
O178        O  0.46089308  0.06773354  0.02046511    -2.18600
O179        O  0.44879382  0.15475929  0.06212323    -0.67300
O180        O  0.41900695  0.13120493  0.04715087    -0.51800
C181        C  0.42683697  0.14845351  0.06025500     0.71500
O182        O  0.52468631  0.15043268  0.96937685    -0.60200
O183        O  0.55252097  0.12743802  0.98853113    -0.52100
C184        C  0.54637550  0.14465052  0.97458697     0.73300
O185        O  0.44337228  0.14533201  0.96585054    -0.71600
O186        O  0.41637026  0.13021455  0.99251583    -0.50200
C187        C  0.42195558  0.14241932  0.97382311     0.74700
O188        O  0.52890297  0.15424558  0.05602248    -0.66900
O189        O  0.55488240  0.12760129  0.03929554    -0.54100
C190        C  0.55000131  0.14604876  0.05203383     0.73100
Zr191      Zr  0.48768450  0.14171927  0.04827841     2.77500
O192        O  0.48663214  0.18455706  0.04043583    -0.97600
O193        O  0.49136427  0.14794412  0.09119846    -0.78500
Zr194      Zr  0.48438377  0.13516491  0.97800595     2.70100
O195        O  0.48323054  0.17789552  0.96986026    -0.79700
O196        O  0.48526681  0.12572911  0.93555394    -0.98800
Zr197      Zr  0.53077796  0.10108851  0.01516735     2.21500
Zr198      Zr  0.43888738  0.10427798  0.01910230     2.11100
O199        O  0.46264955  0.13954553  0.01421832    -2.47500
O200        O  0.50916451  0.13766587  0.01228792    -0.79500
O201        O  0.46325162  0.10721839  0.05381057    -0.71700
O202        O  0.50703281  0.09932067  0.97970866    -2.32600
O203        O  0.50914120  0.10539948  0.05155383    -2.28900
O204        O  0.46038824  0.10063185  0.98244931    -0.73500
H205        H  0.45043755  0.05402421  0.02136838     0.78500
H206        H  0.51686402  0.09817607  0.96561215     0.79600
H207        H  0.45276628  0.15363635  0.01347179     0.81900
H208        H  0.51979002  0.10655096  0.06507333     0.79500
H209        H  0.48526647  0.07339376  0.93428521     0.42500
H210        H  0.47004591  0.11723947  0.93257711     0.41500
H211        H  0.47376744  0.18471612  0.98313369     0.41100
H212        H  0.49271985  0.19197510  0.05529447     0.39100
H213        H  0.50729518  0.14163409  0.09551642     0.42200
H214        H  0.49921748  0.08177488  0.10305184     0.37000
H215        H  0.47995773  0.02070490  0.04759691     0.43100
H216        H  0.48495788  0.01460815  0.97614634     0.39500
H217        H  0.49940635  0.18727715  0.02853200     0.44500
H218        H  0.47747075  0.06433438  0.10526647     0.43200
H219        H  0.49598016  0.01864644  0.00151256     0.43300
H220        H  0.48324555  0.14136611  0.92750946     0.43700
C221        C  0.07866844  0.03494452  0.61324751     0.80300
N222        N  0.07333121  0.01128447  0.61447884    -0.78000
C223        C  0.05373593  0.00230129  0.60340918     0.82800
N224        N  0.03961304  0.01715970  0.59050960    -0.77900
C225        C  0.04476541  0.04083606  0.58902937     0.82800
N226        N  0.06421064  0.04979547  0.60052153    -0.79700
C227        C  0.90009283  0.04344236  0.62063585     0.80300
N228        N  0.91149899  0.05435788  0.60222572    -0.78000
C229        C  0.93556810  0.05219338  0.59992528     0.82800
N230        N  0.94825177  0.03928355  0.61612965    -0.77900
C231        C  0.93696639  0.02819619  0.63451521     0.82800
N232        N  0.91291335  0.03035241  0.63651280    -0.79700
C233        C  0.92749692  0.19228566  0.61761073     0.80300
N234        N  0.93915667  0.18067112  0.59977675    -0.78000
C235        C  0.94019072  0.15626275  0.59974006     0.82800
N236        N  0.92931297  0.14350878  0.61756944    -0.77900
C237        C  0.91761070  0.15523551  0.63542665     0.82800
N238        N  0.91698988  0.17937706  0.63503296    -0.79700
C239        C  0.04821114  0.19140793  0.61630089     0.80300
N240        N  0.03602397  0.17628566  0.60170516    -0.78000
C241        C  0.04757039  0.15771439  0.59097469     0.82800
N242        N  0.07129590  0.15414435  0.59520303    -0.77900
C243        C  0.08340262  0.16899545  0.61025581     0.82800
N244        N  0.07169097  0.18761715  0.62033671    -0.79700
C245        C  0.92247457  0.19947926  0.42508885     0.80300
N246        N  0.90591670  0.19001775  0.41033422    -0.78000
C247        C  0.90189155  0.16616791  0.40935584     0.82800
N248        N  0.91481654  0.15136618  0.42375702    -0.77900
C249        C  0.93136603  0.16083213  0.43897124     0.82800
N250        N  0.93524506  0.18482870  0.43945516    -0.79700
C251        C  0.88145349  0.04509175  0.42571452     0.80300
N252        N  0.89732047  0.05810399  0.43872348    -0.78000
C253        C  0.92065326  0.05113813  0.43997814     0.82800
N254        N  0.92799147  0.03090177  0.42851451    -0.77900
C255        C  0.91210782  0.01778235  0.41561389     0.82800
N256        N  0.88913223  0.02514607  0.41444747    -0.79700
C257        C  0.07446159  0.05050867  0.40530042     0.80300
N258        N  0.06343188  0.03581316  0.38969883    -0.78000
C259        C  0.04064569  0.02872156  0.39298809     0.82800
N260        N  0.02827666  0.03701630  0.41217324    -0.77900
C261        C  0.03931142  0.05153734  0.42835585     0.82800
N262        N  0.06251523  0.05816719  0.42498772    -0.79700
C263        C  0.03618261  0.17650854  0.39546930     0.80300
N264        N  0.02590428  0.16497423  0.41416948    -0.78000
C265        C  0.03944265  0.15108311  0.42892674     0.82800
N266        N  0.06332629  0.14851546  0.42481585    -0.77900
C267        C  0.07351833  0.15962610  0.40573716     0.82800
N268        N  0.05977790  0.17353786  0.39155851    -0.79700
O269        O  0.93867847  0.06022653  0.55888894    -0.75200
O270        O  0.96695219  0.07510977  0.58427599    -0.54100
C271        C  0.94782835  0.06327123  0.57975199     0.78500
O272        O  0.03314189  0.05576630  0.46982834    -0.59800
O273        O  0.00818893  0.07503473  0.44390369    -0.52800
C274        C  0.02590457  0.06121948  0.44866587     0.70500
O275        O  0.03268165  0.04895433  0.55019563    -0.74400
O276        O  0.01960357  0.07363503  0.57999556    -0.54900
C277        C  0.03144682  0.05555853  0.57214011     0.76500
O278        O  0.93219744  0.05985858  0.47900117    -0.59500
O279        O  0.95427720  0.07562392  0.44856251    -0.52600
C280        C  0.93678485  0.06312594  0.45676575     0.73100
Zr281      Zr  0.95008616  0.06862901  0.51766753     2.54700
O282        O  0.95009597  0.02508766  0.51852047    -0.80100
O283        O  0.90689643  0.06982741  0.52234078    -0.93500
Zr284      Zr  0.02029936  0.06299707  0.51105367     2.64700
O285        O  0.01489589  0.01991612  0.50777253    -0.98400
O286        O  0.06348636  0.05837547  0.51091628    -0.80500
O287        O  0.98727781  0.06521756  0.53762023    -0.83900
O288        O  0.98297564  0.06489736  0.49112680    -2.18600
O289        O  0.94281020  0.15270535  0.47813625    -0.67300
O290        O  0.95602052  0.12789308  0.44854346    -0.51800
C291        C  0.94403530  0.14591435  0.45622462     0.71500
O292        O  0.03971912  0.14694735  0.55103388    -0.60200
O293        O  0.01926646  0.12798885  0.58083836    -0.52100
C294        C  0.03485642  0.14306115  0.57321235     0.73300
O295        O  0.03764427  0.14156777  0.46993009    -0.71600
O296        O  0.00886920  0.12713828  0.44474825    -0.50200
C297        C  0.02805648  0.13898418  0.44915461     0.74700
O298        O  0.94701157  0.15115917  0.55851516    -0.66900
O299        O  0.96649195  0.12662876  0.58473517    -0.54100
C300        C  0.95204730  0.14386496  0.57977839     0.73100
Zr301      Zr  0.95606951  0.13937818  0.51735984     2.77500
O302        O  0.96130626  0.18257907  0.51849690    -0.97600
O303        O  0.91271090  0.14178265  0.51834235    -0.78500
Zr304      Zr  0.02639201  0.13341103  0.51144872     2.70100
O305        O  0.02990918  0.17671805  0.50881472    -0.79700
O306        O  0.06961187  0.12859255  0.51123965    -0.98800
Zr307      Zr  0.99204949  0.10098624  0.56039183     2.21500
Zr308      Zr  0.98366430  0.10102493  0.46845242     2.11100
O309        O  0.98920363  0.13684278  0.49120396    -2.47500
O310        O  0.99319872  0.13688871  0.53751646    -0.79500
O311        O  0.95025495  0.10412579  0.49449131    -0.71700
O312        O  0.02587195  0.09795394  0.53454873    -2.32600
O313        O  0.95457901  0.10398504  0.54040652    -2.28900
O314        O  0.02136689  0.09840265  0.48807132    -0.73500
H315        H  0.98103553  0.05114685  0.48087076     0.78500
H316        H  0.04044736  0.09680543  0.54364175     0.79600
H317        H  0.98950043  0.15072200  0.48091943     0.81900
H318        H  0.94148442  0.10508987  0.55153703     0.79500
H319        H  0.06959352  0.07415418  0.50572382     0.42500
H320        H  0.07589274  0.14512105  0.51206964     0.41500
H321        H  0.01819374  0.18152305  0.49648013     0.41100
H322        H  0.94502506  0.18896581  0.52099991     0.39100
H323        H  0.90731960  0.13098915  0.50539678     0.42200
H324        H  0.90101936  0.05497285  0.51472791     0.37000
H325        H  0.94320831  0.02016725  0.50299557     0.43100
H326        H  0.00143067  0.01628648  0.51862016     0.39500
H327        H  0.96972729  0.18575261  0.53372433     0.44500
H328        H  0.90154859  0.08284094  0.51160839     0.43200
H329        H  0.00838479  0.01731777  0.49153920     0.43300
H330        H  0.07359497  0.12155018  0.52697280     0.43700
C331        C  0.95539530  0.35061797  0.28170694     0.03600
S332        S  0.94221058  0.35544216  0.31063135    -0.10400
C333        C  0.95264745  0.32718521  0.32168218    -0.01600
C334        C  0.96298152  0.31186049  0.30618480    -0.01600
S335        S  0.96965815  0.32227306  0.27668624    -0.10400
C336        C  0.96501545  0.39354162  0.22739691    -0.01600
C337        C  0.95089250  0.40756872  0.24104446    -0.01600
S338        S  0.93879842  0.39511295  0.26803598    -0.10400
C339        C  0.95507441  0.36760661  0.26453552     0.03600
S340        S  0.97140399  0.36375787  0.23721081    -0.10400
C341        C  0.26950278  0.10523331  0.31793554     0.03600
S342        S  0.25756452  0.13257622  0.32995291    -0.10400
C343        C  0.23657000  0.11694085  0.34847844    -0.01600
C344        C  0.23711003  0.09280821  0.34840343    -0.01600
S345        S  0.26034347  0.07791919  0.33222601    -0.10400
C346        C  0.31073655  0.09254543  0.26272404    -0.01600
C347        C  0.30552797  0.11581563  0.25895546    -0.01600
S348        S  0.28970918  0.13189233  0.28169851    -0.10400
C349        C  0.28404768  0.10512221  0.29864752     0.03600
S350        S  0.29785054  0.07798447  0.28819394    -0.10400
C351        C  0.24143935  0.37361952  0.03726853     0.03600
S352        S  0.24597213  0.40260334  0.05051332    -0.10400
C353        C  0.21713091  0.41287134  0.04099513    -0.01600
C354        C  0.20330536  0.39789454  0.02804934    -0.01600
S355        S  0.21524687  0.36968990  0.01922275    -0.10400
C356        C  0.27923820  0.31494575  0.03668507    -0.01600
C357        C  0.29460767  0.32984094  0.04793033    -0.01600
S358        S  0.28443442  0.35904175  0.05649265    -0.10400
C359        C  0.25684096  0.35537366  0.04056866     0.03600
S360        S  0.25027626  0.32604648  0.02921878    -0.10400
C361        C  0.70600389  0.09535036  0.27817067     0.03600
S362        S  0.71269478  0.10566617  0.24852118    -0.10400
C363        C  0.68434397  0.09663077  0.23718083    -0.01600
C364        C  0.66851136  0.08652491  0.25229723    -0.01600
S365        S  0.67768794  0.08074987  0.28255608    -0.10400
C366        C  0.74643061  0.09675859  0.33564044    -0.01600
C367        C  0.76028690  0.10871080  0.31985917    -0.01600
S368        S  0.74883424  0.11514920  0.29083340    -0.10400
C369        C  0.72192411  0.09855178  0.29602941     0.03600
S370        S  0.71755348  0.08668237  0.32561630    -0.10400
C371        C  0.96962251  0.85888662  0.27017131     0.03600
S372        S  0.95029985  0.86052697  0.29578448    -0.10400
C373        C  0.96220823  0.88889062  0.30494800    -0.01600
C374        C  0.97803406  0.89986900  0.29043768    -0.01600
S375        S  0.98791403  0.88463952  0.26408666    -0.10400
C376        C  0.98053480  0.80823875  0.22302068    -0.01600
C377        C  0.96524936  0.79666260  0.23762986    -0.01600
S378        S  0.95333414  0.81273674  0.26273427    -0.10400
C379        C  0.97060058  0.83914863  0.25622353     0.03600
S380        S  0.98965516  0.83802212  0.23044686    -0.10400
C381        C  0.26310571  0.10913736  0.72017310     0.03600
S382        S  0.25899331  0.13425156  0.70047234    -0.10400
C383        C  0.23254277  0.12151926  0.68723998    -0.01600
C384        C  0.22469083  0.10014472  0.69532499    -0.01600
S385        S  0.24222182  0.08483465  0.71721084    -0.10400
C386        C  0.30189672  0.09889291  0.77682430    -0.01600
C387        C  0.31178363  0.11976133  0.76970787    -0.01600
S388        S  0.30168056  0.13230512  0.74174239    -0.10400
C389        C  0.28043102  0.10842381  0.73706885     0.03600
S390        S  0.28252497  0.08328681  0.75690341    -0.10400
C391        C  0.97453482  0.39548733  0.73445678     0.03600
S392        S  0.94838957  0.41139549  0.74442003    -0.10400
C393        C  0.96429988  0.42460926  0.76901270    -0.01600
C394        C  0.98804482  0.42094617  0.77042070    -0.01600
S395        S  0.00252147  0.40385631  0.74779487    -0.10400
C396        C  0.98258653  0.33928501  0.69383466    -0.01600
C397        C  0.96017149  0.34537650  0.68746154    -0.01600
S398        S  0.94636319  0.37016791  0.70252564    -0.10400
C399        C  0.97340922  0.37748501  0.71837355     0.03600
S400        S  0.99911066  0.35911080  0.71260516    -0.10400
C401        C  0.26600989  0.83077658  0.00725219     0.03600
S402        S  0.28291101  0.83870490  0.03361134    -0.10400
C403        C  0.29481207  0.86521986  0.01986849    -0.01600
C404        C  0.28992357  0.86914808  0.99663855    -0.01600
S405        S  0.26939097  0.84985740  0.98154152    -0.10400
C406        C  0.21560067  0.78313040  0.99704571    -0.01600
C407        C  0.22531587  0.77421058  0.01729068    -0.01600
S408        S  0.24993238  0.79011725  0.03055756    -0.10400
C409        C  0.25104866  0.81172157  0.00673006     0.03600
S410        S  0.23092464  0.80701064  0.98209057    -0.10400
C411        C  0.67794648  0.39085880  0.01661317     0.03600
S412        S  0.66775022  0.37808196  0.04424125    -0.10400
C413        C  0.64958421  0.35653947  0.02917955    -0.01600
C414        C  0.64887691  0.35675396  0.00509602    -0.01600
S415        S  0.66460936  0.37982316  0.98947636    -0.10400
C416        C  0.72943607  0.43568162  0.00295869    -0.01600
C417        C  0.73324949  0.43173003  0.02642547    -0.01600
S418        S  0.71104226  0.41594932  0.04308642    -0.10400
C419        C  0.69530729  0.40759046  0.01628995     0.03600
S420        S  0.70421457  0.42193608  0.98896047    -0.10400
C421        C  0.00777052  0.85044738  0.74485238     0.03600
S422        S  0.00081073  0.88084703  0.75255385    -0.10400
C423        C  0.00552451  0.89108534  0.72266084    -0.01600
C424        C  0.01251435  0.87500754  0.70604605    -0.01600
S425        S  0.01808402  0.84478779  0.71499950    -0.10400
C426        C  0.00288116  0.79176529  0.78242308    -0.01600
C427        C  0.99545113  0.80792976  0.79869425    -0.01600
S428        S  0.99356494  0.83862050  0.79024019    -0.10400
C429        C  0.00498936  0.83265216  0.76084915     0.03600
S430        S  0.01196875  0.80213633  0.75355335    -0.10400
C431        C  0.72230363  0.09439245  0.76726994     0.03600
S432        S  0.72636658  0.11209526  0.79370693    -0.10400
C433        C  0.69890513  0.10198035  0.80630334    -0.01600
C434        C  0.68428490  0.08816872  0.79301773    -0.01600
S435        S  0.69411638  0.07922521  0.76386790    -0.10400
C436        C  0.76509190  0.08391987  0.71302810    -0.01600
C437        C  0.78010825  0.09573382  0.72782950    -0.01600
S438        S  0.76855612  0.10616754  0.75577068    -0.10400
C439        C  0.73986405  0.09257954  0.75086550     0.03600
S440        S  0.73578324  0.07637496  0.72346844    -0.10400
C441        C  0.72929489  0.86147246  0.02129159     0.03600
S442        S  0.73406346  0.89021297  0.03479681    -0.10400
C443        C  0.70475108  0.90036574  0.02691493    -0.01600
C444        C  0.68937942  0.88479715  0.01672507    -0.01600
S445        S  0.69969387  0.85514340  0.01044845    -0.10400
C446        C  0.77230170  0.80751355  0.01005865    -0.01600
C447        C  0.78815499  0.82318061  0.01939806    -0.01600
S448        S  0.77715100  0.85190521  0.02870185    -0.10400
C449        C  0.74717358  0.84540808  0.01905410     0.03600
S450        S  0.74203406  0.81668363  0.00571449    -0.10400
C451        C  0.97073405  0.28741096  0.31328943    -0.01200
C452        C  0.95519144  0.27170896  0.32516907    -0.09200
C453        C  0.96402011  0.25161525  0.33713577    -0.18100
C454        C  0.98863220  0.24618885  0.33666196     0.04300
C455        C  0.00357721  0.26045945  0.32182101     0.18500
C456        C  0.99459507  0.28093286  0.31054022    -0.19500
C457        C  0.02766963  0.25480478  0.31905350    -0.20800
C458        C  0.03758205  0.23586648  0.33152771    -0.19300
C459        C  0.02383338  0.22271957  0.34772378     0.19900
C460        C  0.99914048  0.22751373  0.35058777     0.02000
C461        C  0.98648340  0.21414327  0.36799495    -0.14000
C462        C  0.99818342  0.19725570  0.38240449    -0.11700
C463        C  0.02266593  0.19293015  0.37957627     0.01600
C464        C  0.03506284  0.20537673  0.36169864    -0.23900
H465        H  0.93637300  0.27585381  0.32648169     0.09600
H466        H  0.95132314  0.24091619  0.34689775     0.13100
H467        H  0.00655423  0.29266249  0.30081488     0.11900
H468        H  0.03902044  0.26532869  0.30742775     0.13100
H469        H  0.05640627  0.23209474  0.32920126     0.12100
H470        H  0.96776253  0.21695654  0.37140292     0.09200
H471        H  0.98811682  0.18787490  0.39600073     0.12400
H472        H  0.05397654  0.20229602  0.35910682     0.14300
C473        C  0.21616145  0.13026199  0.35916849    -0.01200
C474        C  0.20104461  0.14325810  0.34422310    -0.09200
C475        C  0.17873702  0.15078606  0.35224194    -0.18100
C476        C  0.17056476  0.14495971  0.37547522     0.04300
C477        C  0.18665879  0.13321334  0.39115531     0.18500
C478        C  0.20954440  0.12673042  0.38312128    -0.19500
C479        C  0.17935317  0.12688805  0.41425809    -0.20800
C480        C  0.15605213  0.13118563  0.42182309    -0.19300
C481        C  0.13952766  0.14212227  0.40655805     0.19900
C482        C  0.14677534  0.14958031  0.38333737     0.02000
C483        C  0.12969695  0.16077512  0.36864664    -0.14000
C484        C  0.10640232  0.16399259  0.37634912    -0.11700
C485        C  0.09893415  0.15622424  0.39898960     0.01600
C486        C  0.11570842  0.14538258  0.41415549    -0.23900
H487        H  0.20586784  0.14633061  0.32574146     0.09600
H488        H  0.16796668  0.16014720  0.33936247     0.13100
H489        H  0.22157598  0.11726672  0.39497087     0.11900
H490        H  0.19154389  0.11790737  0.42631899     0.13100
H491        H  0.15082416  0.12557827  0.43959815     0.12100
H492        H  0.13360835  0.16715622  0.35093941     0.09200
H493        H  0.09405448  0.17242017  0.36407374     0.12400
H494        H  0.11026063  0.13942575  0.43175492     0.14300
C495        C  0.21586708  0.07906668  0.35601170    -0.01200
C496        C  0.21333148  0.07143050  0.37966304    -0.09200
C497        C  0.19065452  0.06651405  0.38895854    -0.18100
C498        C  0.16996834  0.06909174  0.37464052     0.04300
C499        C  0.17318147  0.07478786  0.35006561     0.18500
C500        C  0.19598421  0.07931374  0.34099306    -0.19500
C501        C  0.15355167  0.07714699  0.33486335    -0.20800
C502        C  0.13062630  0.07382971  0.34345830    -0.19300
C503        C  0.12678468  0.06840015  0.36752783     0.19900
C504        C  0.14625093  0.06641515  0.38368019     0.02000
C505        C  0.14097106  0.06199316  0.40807223    -0.14000
C506        C  0.11741188  0.05825075  0.41569413    -0.11700
C507        C  0.09866833  0.05874008  0.39921851     0.01600
C508        C  0.10346357  0.06444110  0.37536950    -0.23900
H509        H  0.22863540  0.07126597  0.39148125     0.09600
H510        H  0.18977685  0.06159993  0.40755346     0.13100
H511        H  0.19808329  0.08524702  0.32265342     0.11900
H512        H  0.15594277  0.08165048  0.31618134     0.13100
H513        H  0.11576605  0.07556182  0.33117742     0.12100
H514        H  0.15467614  0.06103147  0.42154986     0.09200
H515        H  0.11397740  0.05388984  0.43422662     0.12400
H516        H  0.08887522  0.06517029  0.36263233     0.14300
C517        C  0.03044695  0.01159088  0.37574030    -0.01200
C518        C  0.00622206  0.01153525  0.36973988    -0.09200
C519        C  0.99764334  0.99607436  0.35201204    -0.18100
C520        C  0.01311774  0.97987728  0.34020065     0.04300
C521        C  0.03749899  0.97962652  0.34703204     0.18500
C522        C  0.04588883  0.99557491  0.36427975    -0.19500
C523        C  0.05333256  0.96303573  0.33710282    -0.20800
C524        C  0.04510199  0.94549177  0.32164912    -0.19300
C525        C  0.02106427  0.94479686  0.31506301     0.19900
C526        C  0.00508177  0.96291070  0.32296959     0.02000
C527        C  0.98156036  0.96262800  0.31392634    -0.14000
C528        C  0.97337463  0.94320599  0.30058773    -0.11700
C529        C  0.98830881  0.92357084  0.29631350     0.01600
C530        C  0.01252442  0.92525207  0.30191885    -0.23900
H531        H  0.99399679  0.02372940  0.37844397     0.09600
H532        H  0.97875025  0.99666655  0.34841122     0.13100
H533        H  0.06461626  0.99517957  0.36916957     0.11900
H534        H  0.07200378  0.96295702  0.34216025     0.13100
H535        H  0.05748736  0.93206422  0.31525676     0.12100
H536        H  0.96893290  0.97668275  0.31765714     0.09200
H537        H  0.95474739  0.94250261  0.29547919     0.12400
H538        H  0.02424448  0.91033720  0.29798595     0.14300
C539        C  0.85605693  0.05218395  0.42266116    -0.01200
C540        C  0.83960959  0.03482301  0.41516405    -0.09200
C541        C  0.81696281  0.04115271  0.40717140    -0.18100
C542        C  0.80988750  0.06532559  0.40611296     0.04300
C543        C  0.82569457  0.08278922  0.41573491     0.18500
C544        C  0.84850701  0.07606963  0.42418082    -0.19500
C545        C  0.81935013  0.10700677  0.41507664    -0.20800
C546        C  0.79891961  0.11441300  0.40293680    -0.19300
C547        C  0.78435109  0.09775633  0.39122452     0.19900
C548        C  0.78881227  0.07290269  0.39385262     0.02000
C549        C  0.77323584  0.05681677  0.38207259    -0.14000
C550        C  0.75713243  0.06499661  0.36486784    -0.11700
C551        C  0.75552898  0.08935665  0.35961701     0.01600
C552        C  0.76707691  0.10575554  0.37477871    -0.23900
H553        H  0.84463263  0.01613416  0.41442536     0.09600
H554        H  0.80589579  0.02674658  0.40083606     0.13100
H555        H  0.86098549  0.08966246  0.43005720     0.11900
H556        H  0.83105215  0.12044663  0.42264110     0.13100
H557        H  0.79542880  0.13339935  0.40130759     0.12100
H558        H  0.77429292  0.03772834  0.38437379     0.09200
H559        H  0.74763230  0.05204169  0.35408018     0.12400
H560        H  0.76508284  0.12474596  0.37143579     0.14300
C561        C  0.91887959  0.99540665  0.40293036    -0.01200
C562        C  0.90160668  0.98378572  0.38897157    -0.09200
C563        C  0.90698065  0.96324407  0.37615622    -0.18100
C564        C  0.93014009  0.95345415  0.37643208     0.04300
C565        C  0.94757935  0.96459310  0.39121494     0.18500
C566        C  0.94183019  0.98537639  0.40436985    -0.19500
C567        C  0.97078576  0.95533012  0.39208679    -0.20800
C568        C  0.97737817  0.93624046  0.37749300    -0.19300
C569        C  0.96090644  0.92589122  0.36172355     0.19900
C570        C  0.93683934  0.93381677  0.36156531     0.02000
C571        C  0.92081754  0.92264582  0.34547348    -0.14000
C572        C  0.92892639  0.90642139  0.32840670    -0.11700
C573        C  0.95303844  0.90041817  0.32711897     0.01600
C574        C  0.96865471  0.90885459  0.34490988    -0.23900
H575        H  0.88362546  0.99072260  0.38756019     0.09600
H576        H  0.89260216  0.95581464  0.36579628     0.13100
H577        H  0.95532401  0.99394852  0.41528662     0.11900
H578        H  0.98416633  0.96346352  0.40346323     0.13100
H579        H  0.99574138  0.93018825  0.37782984     0.12100
H580        H  0.90210455  0.92688683  0.34473987     0.09200
H581        H  0.91654857  0.89981875  0.31508343     0.12400
H582        H  0.98731713  0.90381230  0.34424456     0.14300
C583        C  0.92785853  0.22511861  0.42297260    -0.01200
C584        C  0.95148383  0.23287000  0.42091519    -0.09200
C585        C  0.95660334  0.25505690  0.41056434    -0.18100
C586        C  0.93804847  0.26983948  0.40173108     0.04300
C587        C  0.91411440  0.26274778  0.40622705     0.18500
C588        C  0.90931052  0.24086035  0.41733658    -0.19500
C589        C  0.89504799  0.27620996  0.39733037    -0.20800
C590        C  0.89916093  0.29489257  0.38153674    -0.19300
C591        C  0.92244517  0.30100041  0.37502811     0.19900
C592        C  0.94223847  0.28985620  0.38644901     0.02000
C593        C  0.96534191  0.29791370  0.38035788    -0.14000
C594        C  0.96866889  0.31325608  0.36095286    -0.11700
C595        C  0.94912470  0.32071574  0.34717318     0.01600
C596        C  0.92606322  0.31645107  0.35558284    -0.23900
H597        H  0.96605780  0.22089018  0.42520832     0.09600
H598        H  0.97519842  0.25920943  0.40795282     0.13100
H599        H  0.89098277  0.23489075  0.41920419     0.11900
H600        H  0.87678105  0.27107843  0.40108157     0.13100
H601        H  0.88401155  0.30374668  0.37337801     0.12100
H602        H  0.98116675  0.29152190  0.38926028     0.09200
H603        H  0.98667038  0.31712060  0.35506451     0.12400
H604        H  0.91092954  0.32270972  0.34524874     0.14300
C605        C  0.88328511  0.15729728  0.39265964    -0.01200
C606        C  0.86826658  0.17398965  0.38148767    -0.09200
C607        C  0.85039451  0.16683098  0.36589795    -0.18100
C608        C  0.84655675  0.14245340  0.36089666     0.04300
C609        C  0.86204426  0.12542102  0.37172929     0.18500
C610        C  0.88025033  0.13293775  0.38745342    -0.19500
C611        C  0.85873317  0.10099843  0.36735452    -0.20800
C612        C  0.83949351  0.09308367  0.35374371    -0.19300
C613        C  0.82329488  0.10942119  0.34393313     0.19900
C614        C  0.82708919  0.13438629  0.34659674     0.02000
C615        C  0.81045408  0.15016842  0.33588958    -0.14000
C616        C  0.78946262  0.14153635  0.32572503    -0.11700
C617        C  0.78473147  0.11705145  0.32545575     0.01600
C618        C  0.80244123  0.10098505  0.33287583    -0.23900
H619        H  0.87001611  0.19295058  0.38498880     0.09600
H620        H  0.83957128  0.18091077  0.35851417     0.13100
H621        H  0.89179746  0.11983146  0.39581871     0.11900
H622        H  0.87053078  0.08786975  0.37530759     0.13100
H623        H  0.83674166  0.07401755  0.35167166     0.12100
H624        H  0.81256138  0.16930051  0.33596092     0.09200
H625        H  0.77622165  0.15413250  0.31935079     0.12400
H626        H  0.79898982  0.08193328  0.33193753     0.14300
C627        C  0.99384949  0.31657711  0.68590179    -0.01200
C628        C  0.98259561  0.29464924  0.69040153    -0.09200
C629        C  0.99052897  0.27369636  0.67942502    -0.18100
C630        C  0.01036207  0.27401335  0.66385531     0.04300
C631        C  0.02277011  0.29604557  0.66088897     0.18500
C632        C  0.01436447  0.31704691  0.67177395    -0.19500
C633        C  0.04332695  0.29706677  0.64680770    -0.20800
C634        C  0.05204589  0.27662108  0.63578461    -0.19300
C635        C  0.03990411  0.25484722  0.63780429     0.19900
C636        C  0.01851303  0.25329184  0.65131396     0.02000
C637        C  0.00612843  0.23117460  0.65131839    -0.14000
C638        C  0.01517778  0.21125775  0.63911853    -0.11700
C639        C  0.03693162  0.21271178  0.62698898     0.01600
C640        C  0.04909269  0.23457766  0.62631580    -0.23900
H641        H  0.96693281  0.29395159  0.70170701     0.09600
H642        H  0.98078776  0.25756325  0.68340526     0.13100
H643        H  0.02319206  0.33397908  0.66845348     0.11900
H644        H  0.05289269  0.31375261  0.64451681     0.13100
H645        H  0.06825338  0.27792380  0.62531649     0.12100
H646        H  0.98931849  0.22882487  0.66036844     0.09200
H647        H  0.00553037  0.19448857  0.63978154     0.12400
H648        H  0.06581862  0.23581532  0.61664904     0.14300
C649        C  0.10896300  0.16518500  0.61642969    -0.01200
C650        C  0.12246789  0.14680592  0.60612915    -0.09200
C651        C  0.14604112  0.14266564  0.61343532    -0.18100
C652        C  0.15669107  0.15652648  0.63176064     0.04300
C653        C  0.14306246  0.17543166  0.64173407     0.18500
C654        C  0.11977976  0.17980338  0.63375296    -0.19500
C655        C  0.15220962  0.18913793  0.66055525    -0.20800
C656        C  0.17387122  0.18324105  0.67104741    -0.19300
C657        C  0.18717523  0.16391719  0.66252611     0.19900
C658        C  0.17952535  0.15119586  0.64186470     0.02000
C659        C  0.19437362  0.13267045  0.63329414    -0.14000
C660        C  0.21379395  0.12471230  0.64679246    -0.11700
C661        C  0.21901099  0.13516556  0.66894375     0.01600
C662        C  0.20697627  0.15595815  0.67570980    -0.23900
H663        H  0.11468722  0.13529216  0.59267184     0.09600
H664        H  0.15511673  0.12785063  0.60514817     0.13100
H665        H  0.10970260  0.19414607  0.64196921     0.11900
H666        H  0.14194848  0.20373764  0.66806171     0.13100
H667        H  0.17978931  0.19326886  0.68651900     0.12100
H668        H  0.19065493  0.12318144  0.61695577     0.09200
H669        H  0.22341377  0.10894803  0.64101489     0.12400
H670        H  0.21127847  0.16429222  0.69266442     0.14300
C671        C  0.92617182  0.21868750  0.61930474    -0.01200
C672        C  0.90774247  0.22888017  0.63287092    -0.09200
C673        C  0.90845179  0.25279191  0.63962096    -0.18100
C674        C  0.92789770  0.26738757  0.63320581     0.04300
C675        C  0.94506195  0.25787671  0.61704079     0.18500
C676        C  0.94414253  0.23359355  0.61028892    -0.19500
C677        C  0.96373813  0.27232700  0.60888502    -0.20800
C678        C  0.96660333  0.29543301  0.61765663    -0.19300
C679        C  0.95156094  0.30415325  0.63563604     0.19900
C680        C  0.93175861  0.29042383  0.64347056     0.02000
C681        C  0.91823982  0.29921547  0.66299832    -0.14000
C682        C  0.92602918  0.31902914  0.67609080    -0.11700
C683        C  0.94676937  0.33113062  0.66942203     0.01600
C684        C  0.95785271  0.32518702  0.64772672    -0.23900
H685        H  0.89307623  0.21800043  0.63926053     0.09600
H686        H  0.89384542  0.25917432  0.65038713     0.13100
H687        H  0.95824134  0.22601285  0.59942016     0.11900
H688        H  0.97667835  0.26544551  0.59626505     0.13100
H689        H  0.98178445  0.30583085  0.61166936     0.12100
H690        H  0.90295269  0.28988267  0.67000895     0.09200
H691        H  0.91708159  0.32350670  0.69263901     0.12400
H692        H  0.97370079  0.33491908  0.64233648     0.14300
C693        C  0.80538207  0.10146599  0.72142172    -0.01200
C694        C  0.82080994  0.08402053  0.71208024    -0.09200
C695        C  0.84219830  0.09054415  0.70095403    -0.18100
C696        C  0.84937220  0.11472098  0.70004981     0.04300
C697        C  0.83553539  0.13163220  0.71306043     0.18500
C698        C  0.81360716  0.12498581  0.72321233    -0.19500
C699        C  0.84310780  0.15534828  0.71491978    -0.20800
C700        C  0.86321993  0.16305680  0.70272341    -0.19300
C701        C  0.87553483  0.14748698  0.68752036     0.19900
C702        C  0.86915706  0.12298780  0.68614932     0.02000
C703        C  0.88173206  0.10841904  0.66965051    -0.14000
C704        C  0.89846055  0.11835543  0.65376239    -0.11700
C705        C  0.90366094  0.14286962  0.65445523     0.01600
C706        C  0.89309407  0.15683618  0.67246382    -0.23900
H707        H  0.81567806  0.06538295  0.71218784     0.09600
H708        H  0.85258923  0.07643673  0.69294002     0.13100
H709        H  0.80231771  0.13845414  0.73133965     0.11900
H710        H  0.83305050  0.16817426  0.72535899     0.13100
H711        H  0.86826883  0.18172082  0.70402636     0.12100
H712        H  0.87791514  0.08963020  0.66765839     0.09200
H713        H  0.90651310  0.10703947  0.64030506     0.12400
H714        H  0.89722955  0.17572699  0.67377263     0.14300
C715        C  0.95026746  0.01281846  0.65161733    -0.01200
C716        C  0.97467427  0.00794881  0.64873721    -0.09200
C717        C  0.98617146  0.99111485  0.66332084    -0.18100
C718        C  0.97342883  0.97838631  0.68110745     0.04300
C719        C  0.94906887  0.98442219  0.68469423     0.18500
C720        C  0.93796587  0.00163600  0.67032707    -0.19500
C721        C  0.93545265  0.97245042  0.70187155    -0.20800
C722        C  0.94494637  0.95330151  0.71441315    -0.19300
C723        C  0.96844008  0.94598944  0.71043205     0.19900
C724        C  0.98343666  0.95909006  0.69461249     0.02000
C725        C  0.00745441  0.95166067  0.69246995    -0.14000
C726        C  0.01544841  0.93083883  0.70378120    -0.11700
C727        C  0.99956285  0.91635144  0.71664611     0.01600
C728        C  0.97658056  0.92484459  0.72119750    -0.23900
H729        H  0.98478871  0.01658124  0.63468711     0.09600
H730        H  0.00475689  0.98778126  0.65965630     0.13100
H731        H  0.91921920  0.00548160  0.67312356     0.11900
H732        H  0.91696509  0.97725353  0.70488812     0.13100
H733        H  0.93359050  0.94368876  0.72679350     0.12100
H734        H  0.02024521  0.96116255  0.68166794     0.09200
H735        H  0.03370225  0.92514732  0.70108086     0.12400
H736        H  0.96440887  0.91405514  0.73171536     0.14300
C737        C  0.77276376  0.07572553  0.68909967    -0.01200
C738        C  0.77675120  0.05136351  0.68552901    -0.09200
C739        C  0.79320329  0.04380170  0.66842912    -0.18100
C740        C  0.80620358  0.06065585  0.65475050     0.04300
C741        C  0.79891172  0.08497683  0.65573743     0.18500
C742        C  0.78182258  0.09223235  0.67256733    -0.19500
C743        C  0.81062022  0.10224219  0.64194866    -0.20800
C744        C  0.83092714  0.09629055  0.62897676    -0.19300
C745        C  0.84022075  0.07307721  0.62994776     0.19900
C746        C  0.82750804  0.05471099  0.64211509     0.02000
C747        C  0.83796857  0.03175129  0.64320272    -0.14000
C748        C  0.86110003  0.02791511  0.63493622    -0.11700
C749        C  0.87418767  0.04646447  0.62447152     0.01600
C750        C  0.86312109  0.06860495  0.62065762    -0.23900
H751        H  0.76928981  0.03835685  0.69777305     0.09600
H752        H  0.79656937  0.02486174  0.66757702     0.13100
H753        H  0.77817288  0.11111173  0.67506871     0.11900
H754        H  0.80489573  0.12074498  0.64233175     0.13100
H755        H  0.84033952  0.11031137  0.61950098     0.12100
H756        H  0.82939579  0.01675768  0.65169527     0.09200
H757        H  0.86917818  0.01051716  0.63759240     0.12400
H758        H  0.87318901  0.08303226  0.61254113     0.14300
C759        C  0.10016346  0.04404746  0.62571136    -0.01200
C760        C  0.11963913  0.02879444  0.62942365    -0.09200
C761        C  0.13976593  0.03651140  0.64189698    -0.18100
C762        C  0.14100349  0.05983701  0.65150224     0.04300
C763        C  0.12092690  0.07509343  0.64830008     0.18500
C764        C  0.10102635  0.06731855  0.63500207    -0.19500
C765        C  0.12072585  0.09786658  0.65868298    -0.20800
C766        C  0.14006115  0.10585047  0.67210016    -0.19300
C767        C  0.16051107  0.09168576  0.67461010     0.19900
C768        C  0.16141851  0.06856924  0.66412814     0.02000
C769        C  0.18300711  0.05555081  0.66609378    -0.14000
C770        C  0.20311259  0.06556495  0.67698211    -0.11700
C771        C  0.20228299  0.08857450  0.68667684     0.01600
C772        C  0.18050324  0.10096901  0.68660517    -0.23900
H773        H  0.11936938  0.01069256  0.62254915     0.09600
H774        H  0.15386254  0.02361174  0.64412084     0.13100
H775        H  0.08586852  0.07911626  0.63257092     0.11900
H776        H  0.10545492  0.10955387  0.65651312     0.13100
H777        H  0.13933892  0.12358015  0.67987898     0.12100
H778        H  0.18528842  0.03803763  0.65843370     0.09200
H779        H  0.21968718  0.05560940  0.67701061     0.12400
H780        H  0.17952228  0.11849442  0.69477629     0.14300
C781        C  0.04677548  0.97714404  0.60755277    -0.01200
C782        C  0.02265013  0.97063713  0.60820208    -0.09200
C783        C  0.01566990  0.94879786  0.61812820    -0.18100
C784        C  0.03277300  0.93288774  0.62780247     0.04300
C785        C  0.05729863  0.93846409  0.62449480     0.18500
C786        C  0.06402948  0.96032876  0.61425806    -0.19500
C787        C  0.07499742  0.92317844  0.63329164    -0.20800
C788        C  0.06896754  0.90401500  0.64785709    -0.19300
C789        C  0.04511534  0.89967188  0.65371103     0.19900
C790        C  0.02656067  0.91298316  0.64253001     0.02000
C791        C  0.00271978  0.90723818  0.64851894    -0.14000
C792        C  0.99780567  0.89188617  0.66755443    -0.11700
C793        C  0.01647284  0.88191174  0.68085549     0.01600
C794        C  0.03985488  0.88393919  0.67250967    -0.23900
H795        H  0.00898152  0.98317789  0.60270408     0.09600
H796        H  0.99675315  0.94555876  0.61924584     0.13100
H797        H  0.08277477  0.96502294  0.61318558     0.11900
H798        H  0.09370603  0.92701206  0.63025448     0.13100
H799        H  0.08313808  0.89351883  0.65583893     0.12100
H800        H  0.98760697  0.91565898  0.64010507     0.09200
H801        H  0.97953874  0.88991441  0.67356064     0.12400
H802        H  0.05423227  0.87580115  0.68262876     0.14300
C803        C  0.37702894  0.15851758  0.13194031    -0.01200
C804        C  0.38212877  0.17051895  0.15323449    -0.09200
C805        C  0.36953880  0.16550192  0.17404810    -0.18100
C806        C  0.35101546  0.14839524  0.17415093     0.04300
C807        C  0.34638119  0.13566948  0.15258728     0.18500
C808        C  0.35947102  0.14075529  0.13172460    -0.19500
C809        C  0.32854910  0.11817841  0.15195019    -0.20800
C810        C  0.31531689  0.11292119  0.17228999    -0.19300
C811        C  0.31948176  0.12513449  0.19372210     0.19900
C812        C  0.33720846  0.14323055  0.19495347     0.02000
C813        C  0.34064232  0.15498874  0.21712576    -0.14000
C814        C  0.32876439  0.14734606  0.23768913    -0.11700
C815        C  0.31275329  0.12827716  0.23662993     0.01600
C816        C  0.30688584  0.11845943  0.21431385    -0.23900
H817        H  0.39567618  0.18434384  0.15362248     0.09600
H818        H  0.37458448  0.17555535  0.18964955     0.13100
H819        H  0.35530609  0.13168448  0.11511956     0.11900
H820        H  0.32496108  0.10833336  0.13566927     0.13100
H821        H  0.30199270  0.09890763  0.17135900     0.12100
H822        H  0.35306440  0.16949300  0.21941796     0.09200
H823        H  0.33323099  0.15536678  0.25472264     0.12400
H824        H  0.29400598  0.10401986  0.21342762     0.14300
C825        C  0.39262541  0.22641213  0.08059459    -0.01200
C826        C  0.38768965  0.24229404  0.09930489    -0.09200
C827        C  0.37770378  0.26464625  0.09468355    -0.18100
C828        C  0.37194166  0.27151184  0.07109421     0.04300
C829        C  0.37971712  0.25653120  0.05209928     0.18500
C830        C  0.39002106  0.23420013  0.05699535    -0.19500
C831        C  0.37563188  0.26315626  0.02836588    -0.20800
C832        C  0.36226735  0.28337437  0.02308186    -0.19300
C833        C  0.35193322  0.29681181  0.04143640     0.19900
C834        C  0.35711501  0.29153011  0.06573946     0.02000
C835        C  0.34502943  0.30476578  0.08358805    -0.14000
C836        C  0.32603213  0.31975382  0.07755334    -0.11700
C837        C  0.31936887  0.32256779  0.05368483     0.01600
C838        C  0.33409339  0.31338401  0.03569134    -0.23900
H839        H  0.39040817  0.23691016  0.11770271     0.09600
H840        H  0.37383208  0.27572815  0.10994449     0.13100
H841        H  0.39408656  0.22209891  0.04242412     0.11900
H842        H  0.38186159  0.25202853  0.01380357     0.13100
H843        H  0.35834487  0.28732843  0.00453588     0.12100
H844        H  0.34823196  0.30217526  0.10239093     0.09200
H845        H  0.31513862  0.32727267  0.09165240     0.12400
H846        H  0.32914222  0.31613533  0.01715604     0.14300
C847        C  0.37018996  0.04876389  0.13064990    -0.01200
C848        C  0.34910902  0.03815989  0.13899792    -0.09200
C849        C  0.34050541  0.04270009  0.16181962    -0.18100
C850        C  0.35276064  0.05804540  0.17756461     0.04300
C851        C  0.37379534  0.06949718  0.16903890     0.18500
C852        C  0.38232936  0.06480766  0.14572266    -0.19500
C853        C  0.38605051  0.08552446  0.18386661    -0.20800
C854        C  0.37763074  0.09068109  0.20672882    -0.19300
C855        C  0.35682965  0.07983367  0.21542164     0.19900
C856        C  0.34440062  0.06292696  0.20118139     0.02000
C857        C  0.32370103  0.05215086  0.21097629    -0.14000
C858        C  0.31412137  0.06004499  0.23259280    -0.11700
C859        C  0.32506521  0.07852437  0.24524973     0.01600
C860        C  0.34742476  0.08696066  0.23759510    -0.23900
H861        H  0.33897995  0.02607262  0.12779466     0.09600
H862        H  0.32405646  0.03393799  0.16648435     0.13100
H863        H  0.39853893  0.07334771  0.13950144     0.11900
H864        H  0.40204919  0.09441687  0.17761121     0.13100
H865        H  0.38716959  0.10364393  0.21749421     0.12100
H866        H  0.31386685  0.03832255  0.20192158     0.09200
H867        H  0.29705930  0.05305159  0.23840209     0.12400
H868        H  0.35615973  0.10100489  0.24768725     0.14300
C869        C  0.36568689  0.99357800  0.06333713    -0.01200
C870        C  0.37940174  0.97471513  0.05425811    -0.09200
C871        C  0.36876855  0.95264949  0.04855851    -0.18100
C872        C  0.34389012  0.94899444  0.05132957     0.04300
C873        C  0.32991418  0.96888394  0.05865878     0.18500
C874        C  0.34089984  0.99054716  0.06514927    -0.19500
C875        C  0.30502490  0.96703856  0.05960106    -0.20800
C876        C  0.29364079  0.94585879  0.05334971    -0.19300
C877        C  0.30687791  0.92558895  0.04716278     0.19900
C878        C  0.33223529  0.92658408  0.04673501     0.02000
C879        C  0.34466320  0.90507110  0.04189505    -0.14000
C880        C  0.33235523  0.88402977  0.03586429    -0.11700
C881        C  0.30740797  0.88389820  0.03418203     0.01600
C882        C  0.29481640  0.90450096  0.04072517    -0.23900
H883        H  0.39855239  0.97666096  0.05261352     0.09600
H884        H  0.38035662  0.93876318  0.04192891     0.13100
H885        H  0.33009628  0.00516389  0.07185840     0.11900
H886        H  0.29423853  0.98223082  0.06485094     0.13100
H887        H  0.27431695  0.94523601  0.05367980     0.12100
H888        H  0.36388153  0.90416599  0.04224477     0.09200
H889        H  0.34241272  0.86833119  0.03070493     0.12400
H890        H  0.27551465  0.90450891  0.03930800     0.14300
C891        C  0.36687892  0.05892220  0.90762200    -0.01200
C892        C  0.36779824  0.04286583  0.88853741    -0.09200
C893        C  0.35557501  0.04753157  0.86738607    -0.18100
C894        C  0.34146465  0.06831831  0.86491842     0.04300
C895        C  0.34102464  0.08483575  0.88427899     0.18500
C896        C  0.35392132  0.08012450  0.90530703    -0.19500
C897        C  0.32732812  0.10568058  0.88272405    -0.20800
C898        C  0.31437345  0.11074302  0.86217277    -0.19300
C899        C  0.31492768  0.09514710  0.84264681     0.19900
C900        C  0.32811326  0.07348564  0.84383512     0.02000
C901        C  0.32792804  0.05834848  0.82354699    -0.14000
C902        C  0.31765617  0.06586652  0.80211540    -0.11700
C903        C  0.30676498  0.08823935  0.80056819     0.01600
C904        C  0.30366130  0.10185196  0.82133398    -0.23900
H905        H  0.37744986  0.02617051  0.89033008     0.09600
H906        H  0.35715142  0.03425772  0.85355205     0.13100
H907        H  0.35280969  0.09227250  0.92036129     0.11900
H908        H  0.32686014  0.11830353  0.89739882     0.13100
H909        H  0.30441678  0.12732933  0.86127820     0.12100
H910        H  0.33654489  0.04114780  0.82327125     0.09200
H911        H  0.31960491  0.05484977  0.78632642     0.12400
H912        H  0.29441766  0.11884632  0.82023477     0.14300
C913        C  0.30012037  0.89008047  0.98411351    -0.01200
C914        C  0.28618279  0.91045541  0.98065940    -0.09200
C915        C  0.29697762  0.93259166  0.97658523    -0.18100
C916        C  0.32215966  0.93491766  0.97655040     0.04300
C917        C  0.33602690  0.91371613  0.97821136     0.18500
C918        C  0.32486004  0.89150311  0.98117449    -0.19500
C919        C  0.36095943  0.91490869  0.97844107    -0.20800
C920        C  0.37254885  0.93683131  0.97740404    -0.19300
C921        C  0.35948576  0.95807381  0.97591725     0.19900
C922        C  0.33407953  0.95744908  0.97547459     0.02000
C923        C  0.32174992  0.97943319  0.97399249    -0.14000
C924        C  0.33412033  0.00087529  0.97143230    -0.11700
C925        C  0.35904246  0.00120714  0.97091005     0.01600
C926        C  0.37170137  0.97992999  0.97400312    -0.23900
H927        H  0.26700840  0.90955889  0.98289754     0.09600
H928        H  0.28514606  0.94764461  0.97474585     0.13100
H929        H  0.33556452  0.87555658  0.98378142     0.11900
H930        H  0.37157715  0.89877918  0.97987906     0.13100
H931        H  0.39187888  0.93716893  0.97771683     0.12100
H932        H  0.30257840  0.98064403  0.97399312     0.09200
H933        H  0.32413774  0.01727460  0.96889066     0.12400
H934        H  0.39103348  0.98020814  0.97318556     0.14300
C935        C  0.35261471  0.19682774  0.97470733    -0.01200
C936        C  0.35329687  0.19938011  0.99962966    -0.09200
C937        C  0.33870697  0.21612133  0.01122543    -0.18100
C938        C  0.32316698  0.23122479  0.99814679     0.04300
C939        C  0.32251509  0.22846439  0.97292176     0.18500
C940        C  0.33676833  0.21123750  0.96162634    -0.19500
C941        C  0.30821549  0.24344404  0.95890695    -0.20800
C942        C  0.29540195  0.26196168  0.96925797    -0.19300
C943        C  0.29609364  0.26559935  0.99394513     0.19900
C944        C  0.30910827  0.24969566  0.00892338     0.02000
C945        C  0.30793576  0.25350175  0.03389256    -0.14000
C946        C  0.29639435  0.27364092  0.04325172    -0.11700
C947        C  0.28609025  0.29068849  0.02800904     0.01600
C948        C  0.28476343  0.28578013  0.00357441    -0.23900
H949        H  0.36536265  0.18860759  0.01024128     0.09600
H950        H  0.34054673  0.21739368  0.03035273     0.13100
H951        H  0.33602162  0.20967880  0.94233806     0.11900
H952        H  0.30757458  0.24134386  0.93967014     0.13100
H953        H  0.28524319  0.27382157  0.95780060     0.12100
H954        H  0.31635061  0.24162780  0.04651834     0.09200
H955        H  0.29685795  0.27671682  0.06234426     0.12400
H956        H  0.27631519  0.29862250  0.99177012     0.14300
C957        C  0.37755515  0.16102673  0.89892986    -0.01200
C958        C  0.36288747  0.17780879  0.88740098    -0.09200
C959        C  0.35534943  0.17452896  0.86388663    -0.18100
C960        C  0.36214570  0.15412196  0.85076772     0.04300
C961        C  0.37838718  0.13789298  0.86178003     0.18500
C962        C  0.38597662  0.14146081  0.88564568    -0.19500
C963        C  0.38613373  0.11770606  0.84920421    -0.20800
C964        C  0.37740285  0.11279104  0.82641238    -0.19300
C965        C  0.36031964  0.12765669  0.81573346     0.19900
C966        C  0.35262287  0.14872757  0.82758563     0.02000
C967        C  0.33456396  0.16255921  0.81638617    -0.14000
C968        C  0.32297979  0.15444801  0.79570840    -0.11700
C969        C  0.32934915  0.13266475  0.78526286     0.01600
C970        C  0.34937535  0.12043990  0.79425361    -0.23900
H971        H  0.35657083  0.19347191  0.89684555     0.09600
H972        H  0.34383435  0.18813314  0.85663172     0.13100
H973        H  0.39746726  0.12840969  0.89417662     0.11900
H974        H  0.39856158  0.10526722  0.85730210     0.13100
H975        H  0.38322398  0.09659708  0.81753885     0.12100
H976        H  0.32784299  0.17888692  0.82403706     0.09200
H977        H  0.30763899  0.16420004  0.78910202     0.12400
H978        H  0.35447018  0.10360251  0.78612938     0.14300
C979        C  0.60287890  0.21616984  0.06096202    -0.01200
C980        C  0.62689534  0.22217269  0.06433811    -0.09200
C981        C  0.63484156  0.24546482  0.06130698    -0.18100
C982        C  0.61888882  0.26391059  0.05500607     0.04300
C983        C  0.59457525  0.25775833  0.05090035     0.18500
C984        C  0.58683363  0.23391588  0.05358495    -0.19500
C985        C  0.57812370  0.27554340  0.04470360    -0.20800
C986        C  0.58531052  0.29927347  0.04245981    -0.19300
C987        C  0.60918222  0.30575396  0.04607330     0.19900
C988        C  0.62629540  0.28817530  0.05255711     0.02000
C989        C  0.65024118  0.29557142  0.05578554    -0.14000
C990        C  0.65721477  0.31891509  0.05078857    -0.11700
C991        C  0.64062891  0.33560980  0.04266440     0.01600
C992        C  0.61640124  0.32943150  0.04179694    -0.23900
H993        H  0.63973347  0.20873711  0.06975301     0.09600
H994        H  0.65355433  0.24838413  0.06445747     0.13100
H995        H  0.56819906  0.22940863  0.05099520     0.11900
H996        H  0.55956884  0.27107558  0.04158502     0.13100
H997        H  0.57219675  0.31257990  0.03739291     0.12100
H998        H  0.66431116  0.28357609  0.06100912     0.09200
H999        H  0.67601943  0.32338450  0.05129340     0.12400
H1000       H  0.60357542  0.34249073  0.03545683     0.14300
C1001       C  0.61478008  0.14668129  0.11154853    -0.01200
C1002       C  0.61433209  0.12205354  0.11615966    -0.09200
C1003       C  0.62771148  0.11240315  0.13504252    -0.18100
C1004       C  0.64161152  0.12728759  0.15010733     0.04300
C1005       C  0.64107856  0.15229988  0.14580805     0.18500
C1006       C  0.62811615  0.16157410  0.12663061    -0.19500
C1007       C  0.65325923  0.16812722  0.16081615    -0.20800
C1008       C  0.66563202  0.15971320  0.18050701    -0.19300
C1009       C  0.66660384  0.13523671  0.18530004     0.19900
C1010       C  0.65537612  0.11852652  0.16975168     0.02000
C1011       C  0.65821832  0.09391661  0.17484720    -0.14000
C1012       C  0.66961473  0.08647433  0.19582464    -0.11700
C1013       C  0.67814099  0.10333930  0.21228577     0.01600
C1014       C  0.67785905  0.12751066  0.20623111    -0.23900
H1015       H  0.60387150  0.11019444  0.10500922     0.09600
H1016       H  0.62654396  0.09334445  0.13769967     0.13100
H1017       H  0.62816844  0.18074382  0.12371926     0.11900
H1018       H  0.65278294  0.18723433  0.15759909     0.13100
H1019       H  0.67431247  0.17247296  0.19220806     0.12100
H1020       H  0.65129709  0.08013358  0.16329613     0.09200
H1021       H  0.67046359  0.06757364  0.19992763     0.12400
H1022       H  0.68491892  0.14052668  0.21873729     0.14300
C1023       C  0.59570058  0.21803050  0.97235782    -0.01200
C1024       C  0.57959627  0.23707068  0.97125444    -0.09200
C1025       C  0.58745000  0.26060923  0.97498910    -0.18100
C1026       C  0.61175992  0.26566377  0.97994925     0.04300
C1027       C  0.62767616  0.24598433  0.98200280     0.18500
C1028       C  0.61955649  0.22262780  0.97821511    -0.19500
C1029       C  0.65179967  0.24966351  0.98722429    -0.20800
C1030       C  0.66069010  0.27259909  0.99012786    -0.19300
C1031       C  0.64569157  0.29241884  0.98784137     0.19900
C1032       C  0.62097919  0.28937764  0.98281885     0.02000
C1033       C  0.60668953  0.31021441  0.98120056    -0.14000
C1034       C  0.61632015  0.33286860  0.98585791    -0.11700
C1035       C  0.64040310  0.33536035  0.99194035     0.01600
C1036       C  0.65517328  0.31525475  0.99169968    -0.23900
H1037       H  0.56116779  0.23386806  0.96639286     0.09600
H1038       H  0.57422381  0.27449107  0.97337174     0.13100
H1039       H  0.63209608  0.20786920  0.97907927     0.11900
H1040       H  0.66393530  0.23467316  0.98894115     0.13100
H1041       H  0.67944641  0.27484837  0.99429243     0.12100
H1042       H  0.58785774  0.30947470  0.97740483     0.09200
H1043       H  0.60458137  0.34823449  0.98647672     0.12400
H1044       H  0.67373870  0.31722404  0.99684735     0.14300
C1045       C  0.61776013  0.15046447  0.92346128    -0.01200
C1046       C  0.62181659  0.12587718  0.92125796    -0.09200
C1047       C  0.63860469  0.11729614  0.90482355    -0.18100
C1048       C  0.65118958  0.13317332  0.88961525     0.04300
C1049       C  0.64637749  0.15799818  0.89164170     0.18500
C1050       C  0.63032403  0.16632352  0.90873496    -0.19500
C1051       C  0.65688421  0.17442496  0.87600691    -0.20800
C1052       C  0.67105977  0.16657320  0.85732730    -0.19300
C1053       C  0.67589007  0.14223792  0.85456830     0.19900
C1054       C  0.66720101  0.12531896  0.87146411     0.02000
C1055       C  0.67430833  0.10123056  0.86887620    -0.14000
C1056       C  0.68689301  0.09388247  0.84866298    -0.11700
C1057       C  0.69233341  0.11025964  0.83051662     0.01600
C1058       C  0.68823830  0.13455485  0.83425373    -0.23900
H1059       H  0.61223741  0.11331219  0.93242933     0.09600
H1060       H  0.64078749  0.09816887  0.90383072     0.13100
H1061       H  0.62699116  0.18538510  0.90998829     0.11900
H1062       H  0.65322764  0.19339094  0.87757169     0.13100
H1063       H  0.67793260  0.17956761  0.84471556     0.12100
H1064       H  0.66979748  0.08766063  0.88180182     0.09200
H1065       H  0.69090340  0.07508534  0.84637250     0.12400
H1066       H  0.69304876  0.14728553  0.82044717     0.14300
C1067       C  0.59155013  0.98350383  0.96645466    -0.01200
C1068       C  0.59951069  0.96641717  0.94999926    -0.09200
C1069       C  0.61005987  0.94521456  0.95764018    -0.18100
C1070       C  0.61350948  0.94058567  0.98219013     0.04300
C1071       C  0.60327462  0.95677629  0.99888719     0.18500
C1072       C  0.59239067  0.97805528  0.99091851    -0.19500
C1073       C  0.60515291  0.95222041  0.02341258    -0.20800
C1074       C  0.61882525  0.93317161  0.03173568    -0.19300
C1075       C  0.63139452  0.91863690  0.01572308     0.19900
C1076       C  0.62823142  0.92155714  0.99069657     0.02000
C1077       C  0.64190222  0.90692134  0.97526595    -0.14000
C1078       C  0.66038155  0.89277789  0.98418387    -0.11700
C1079       C  0.66516199  0.89215640  0.00865090     0.01600
C1080       C  0.64909892  0.90311376  0.02447242    -0.23900
H1081       H  0.59816675  0.96972879  0.93097640     0.09600
H1082       H  0.61595665  0.93315516  0.94385899     0.13100
H1083       H  0.58587412  0.99095851  0.00380675     0.11900
H1084       H  0.59694425  0.96412386  0.03627737     0.13100
H1085       H  0.62101306  0.93093556  0.05084485     0.12100
H1086       H  0.64019351  0.90753970  0.95611490     0.09200
H1087       H  0.67230079  0.88401830  0.97172710     0.12400
H1088       H  0.65247468  0.90212869  0.04352081     0.14300
C1089       C  0.59469818  0.04445634  0.90374739    -0.01200
C1090       C  0.59220254  0.06794075  0.89528523    -0.09200
C1091       C  0.60223111  0.07477920  0.87334341    -0.18100
C1092       C  0.61546470  0.05832321  0.85937105     0.04300
C1093       C  0.61744355  0.03449213  0.86790141     0.18500
C1094       C  0.60678047  0.02777882  0.88948475    -0.19500
C1095       C  0.63111027  0.01764083  0.85551626    -0.20800
C1096       C  0.64445220  0.02437067  0.83576986    -0.19300
C1097       C  0.64380171  0.04792021  0.82746994     0.19900
C1098       C  0.62823327  0.06491143  0.83822777     0.02000
C1099       C  0.62732677  0.08806794  0.82812721    -0.14000
C1100       C  0.64377833  0.09496997  0.81064197    -0.11700
C1101       C  0.66140044  0.07898969  0.80281148     0.01600
C1102       C  0.66005481  0.05505128  0.80976713    -0.23900
H1103       H  0.58296589  0.08122746  0.90587857     0.09600
H1104       H  0.60022686  0.09327143  0.86827155     0.13100
H1105       H  0.60868686  0.00947359  0.89556468     0.11900
H1106       H  0.63249781  0.99939233  0.86189436     0.13100
H1107       H  0.65599179  0.01125607  0.82744133     0.12100
H1108       H  0.61502430  0.10152433  0.83431445     0.09200
H1109       H  0.64427821  0.11348297  0.80497592     0.12400
H1110       H  0.67346281  0.04259284  0.80343839     0.14300
C1111       C  0.64431651  0.07948579  0.24406142    -0.01200
C1112       C  0.63945103  0.05529016  0.24043879    -0.09200
C1113       C  0.62195614  0.04828606  0.22409647    -0.18100
C1114       C  0.60930067  0.06550796  0.21051539     0.04300
C1115       C  0.61210364  0.08997446  0.21677941     0.18500
C1116       C  0.62903035  0.09667138  0.23405947    -0.19500
C1117       C  0.60009486  0.10774641  0.20388216    -0.20800
C1118       C  0.58741520  0.10198604  0.18329692    -0.19300
C1119       C  0.58645593  0.07833381  0.17520601     0.19900
C1120       C  0.59617562  0.05959775  0.18943305     0.02000
C1121       C  0.59447577  0.03599607  0.18062766    -0.14000
C1122       C  0.58689469  0.03167346  0.15731651    -0.11700
C1123       C  0.57991547  0.05051638  0.14241703     0.01600
C1124       C  0.57796863  0.07355734  0.15199678    -0.23900
H1125       H  0.65083002  0.04179449  0.24837837     0.09600
H1126       H  0.62016303  0.02934385  0.22115877     0.13100
H1127       H  0.63266336  0.11546418  0.23716410     0.11900
H1128       H  0.60193492  0.12640763  0.20874844     0.13100
H1129       H  0.57970366  0.11631806  0.17279209     0.12100
H1130       H  0.60033221  0.02066255  0.19069172     0.09200
H1131       H  0.58793181  0.01362242  0.15036887     0.12400
H1132       H  0.57244838  0.08818519  0.14053571     0.14300
C1133       C  0.61883821  0.01526806  0.07315287    -0.01200
C1134       C  0.62320952  0.01337810  0.04858575    -0.09200
C1135       C  0.64063267  0.99767455  0.03993181    -0.18100
C1136       C  0.65400691  0.98306109  0.05569331     0.04300
C1137       C  0.64983502  0.98558027  0.08059435     0.18500
C1138       C  0.63267511  0.00164463  0.08898980    -0.19500
C1139       C  0.66222917  0.97149006  0.09709335    -0.20800
C1140       C  0.67777474  0.95386480  0.08937722    -0.19300
C1141       C  0.68150718  0.95012938  0.06500168     0.19900
C1142       C  0.67048240  0.96524655  0.04775759     0.02000
C1143       C  0.67566823  0.96105554  0.02337613    -0.14000
C1144       C  0.68908350  0.94114313  0.01646442    -0.11700
C1145       C  0.69751842  0.92494577  0.03362184     0.01600
C1146       C  0.69503559  0.93036897  0.05779017    -0.23900
H1147       H  0.61292300  0.02381509  0.03595089     0.09600
H1148       H  0.64268608  0.99681997  0.02081238     0.13100
H1149       H  0.62960123  0.00288226  0.10806972     0.11900
H1150       H  0.65926011  0.97355634  0.11611282     0.13100
H1151       H  0.68639231  0.94259639  0.10256582     0.12100
H1152       H  0.66872135  0.97215952  0.00925450     0.09200
H1153       H  0.69127181  0.93733272  0.99762330     0.12400
H1154       H  0.70183216  0.91794091  0.07102875     0.14300
C1155       C  0.02983218  0.47180596  0.11376039    -0.01200
C1156       C  0.04438567  0.45992214  0.13032136    -0.09200
C1157       C  0.03466767  0.44536312  0.14789749    -0.18100
C1158       C  0.00979844  0.44195117  0.14960165     0.04300
C1159       C  0.99495907  0.45365849  0.13259195     0.18500
C1160       C  0.00502047  0.46869766  0.11507585    -0.19500
C1161       C  0.97023034  0.45015554  0.13314397    -0.20800
C1162       C  0.95991910  0.43547055  0.15037187    -0.19300
C1163       C  0.97402690  0.42433804  0.16778301     0.19900
C1164       C  0.99918816  0.42747133  0.16769428     0.02000
C1165       C  0.01258246  0.41655867  0.18617600    -0.14000
C1166       C  0.00134453  0.40422228  0.20462426    -0.11700
C1167       C  0.97655424  0.40213907  0.20517133     0.01600
C1168       C  0.96303536  0.41110957  0.18607194    -0.23900
H1169       H  0.06360188  0.46190817  0.12987377     0.09600
H1170       H  0.04724055  0.43687718  0.15970952     0.13100
H1171       H  0.99356475  0.47766684  0.10229267     0.11900
H1172       H  0.95876504  0.45892270  0.12023822     0.13100
H1173       H  0.94069927  0.43335936  0.15049370     0.12100
H1174       H  0.03167767  0.41805317  0.18754830     0.09200
H1175       H  0.01200689  0.39737923  0.21926008     0.12400
H1176       H  0.94377542  0.40935356  0.18648414     0.14300
C1177       C  0.20838143  0.43678685  0.04842592    -0.01200
C1178       C  0.20367444  0.44105292  0.07254541    -0.09200
C1179       C  0.18630442  0.45772634  0.07910248    -0.18100
C1180       C  0.17272322  0.46974651  0.06143269     0.04300
C1181       C  0.18062290  0.46824433  0.03737350     0.18500
C1182       C  0.19907961  0.45247191  0.03124381    -0.19500
C1183       C  0.16822083  0.48015322  0.01922391    -0.20800
C1184       C  0.14668357  0.49148622  0.02405579    -0.19300
C1185       C  0.13705731  0.49106095  0.04711128     0.19900
C1186       C  0.15040190  0.48104454  0.06632916     0.02000
C1187       C  0.13976459  0.48068916  0.08917727    -0.14000
C1188       C  0.11621953  0.48801045  0.09235660    -0.11700
C1189       C  0.10260944  0.49645864  0.07310695     0.01600
C1190       C  0.11348871  0.49900527  0.05073464    -0.23900
H1191       H  0.21150045  0.42973855  0.08616556     0.09600
H1192       H  0.18260088  0.45931871  0.09791901     0.13100
H1193       H  0.20347676  0.44967293  0.01258657     0.11900
H1194       H  0.17436322  0.47931106  0.00089049     0.13100
H1195       H  0.13679674  0.49933656  0.00937698     0.12100
H1196       H  0.14871483  0.47371777  0.10472533     0.09200
H1197       H  0.10831390  0.48624527  0.10992746     0.12400
H1198       H  0.10304256  0.50540307  0.03572855     0.14300
C1199       C  0.07632333  0.46348594  0.97498273    -0.01200
C1200       C  0.07933328  0.46193497  0.99976376    -0.09200
C1201       C  0.09836326  0.44889680  0.00949142    -0.18100
C1202       C  0.11536281  0.43755367  0.99457269     0.04300
C1203       C  0.11245426  0.43983594  0.96945410     0.18500
C1204       C  0.09291622  0.45225577  0.96001364    -0.19500
C1205       C  0.12934561  0.43019955  0.95379431    -0.20800
C1206       C  0.14962072  0.41898459  0.96252896    -0.19300
C1207       C  0.15313375  0.41648700  0.98711560     0.19900
C1208       C  0.13566210  0.42489891  0.00353438     0.02000
C1209       C  0.13959433  0.42062506  0.02813753    -0.14000
C1210       C  0.16092247  0.41033880  0.03608596    -0.11700
C1211       C  0.17892196  0.40425578  0.01981141     0.01600
C1212       C  0.17447735  0.40634767  0.99537122    -0.23900
H1213       H  0.06678881  0.47059191  0.01166045     0.09600
H1214       H  0.09967310  0.44852118  0.02870073     0.13100
H1215       H  0.09099754  0.45375751  0.94078792     0.11900
H1216       H  0.12719626  0.43194179  0.93462846     0.13100
H1217       H  0.16276426  0.41240462  0.94995180     0.12100
H1218       H  0.12673848  0.42544634  0.04161736     0.09200
H1219       H  0.16387993  0.40818956  0.05508641     0.12400
H1220       H  0.18826277  0.40125959  0.98277132     0.14300
C1221       C  0.00152859  0.42753045  0.79211519    -0.01200
C1222       C  0.01223103  0.45002552  0.79386161    -0.09200
C1223       C  0.01767475  0.45962437  0.81625409    -0.18100
C1224       C  0.01269137  0.44668955  0.83740689     0.04300
C1225       C  0.00452732  0.42273616  0.83511600     0.18500
C1226       C  0.99891315  0.41345998  0.81257395    -0.19500
C1227       C  0.00105965  0.40854039  0.85538620    -0.20800
C1228       C  0.00549690  0.41767388  0.87802152    -0.19300
C1229       C  0.01243185  0.44152670  0.88092819     0.19900
C1230       C  0.01538564  0.45662303  0.86071116     0.02000
C1231       C  0.02027679  0.48111380  0.86476120    -0.14000
C1232       C  0.02363372  0.48984761  0.88790822    -0.11700
C1233       C  0.02269872  0.47436814  0.90747318     0.01600
C1234       C  0.01662858  0.45037095  0.90396813    -0.23900
H1235       H  0.01448293  0.46097540  0.77805787     0.09600
H1236       H  0.02520032  0.47736325  0.81653532     0.13100
H1237       H  0.99079467  0.39591831  0.81104276     0.11900
H1238       H  0.99496881  0.39022464  0.85371261     0.13100
H1239       H  0.00301893  0.40614718  0.89338861     0.12100
H1240       H  0.02144659  0.49391236  0.85040205     0.09200
H1241       H  0.02810460  0.50851901  0.89043623     0.12400
H1242       H  0.01546826  0.43850479  0.91925983     0.14300
C1243       C  0.86562134  0.48490316  0.96500957    -0.01200
C1244       C  0.85760942  0.46264667  0.95681347    -0.09200
C1245       C  0.83413596  0.45552477  0.95999145    -0.18100
C1246       C  0.81756604  0.47054921  0.97149340     0.04300
C1247       C  0.82592709  0.49262346  0.98100194     0.18500
C1248       C  0.84986979  0.49961095  0.97773925    -0.19500
C1249       C  0.81026921  0.50755895  0.99350837    -0.20800
C1250       C  0.78667094  0.50074242  0.99726526    -0.19300
C1251       C  0.77810424  0.47898570  0.98832183     0.19900
C1252       C  0.79322060  0.46395846  0.97461133     0.02000
C1253       C  0.78350135  0.44252160  0.96530553    -0.14000
C1254       C  0.76093188  0.43473195  0.97218396    -0.11700
C1255       C  0.74740177  0.44820123  0.98815122     0.01600
C1256       C  0.75510863  0.47121474  0.99451494    -0.23900
H1257       H  0.86953101  0.45065886  0.94741318     0.09600
H1258       H  0.82961286  0.43808368  0.95324050     0.13100
H1259       H  0.85596515  0.51678219  0.98432850     0.11900
H1260       H  0.81642610  0.52440317  0.00081893     0.13100
H1261       H  0.77519226  0.51230767  0.00769590     0.12100
H1262       H  0.79326196  0.43079108  0.95361355     0.09200
H1263       H  0.75506082  0.41705795  0.96687613     0.12400
H1264       H  0.74434352  0.48178027  0.00665403     0.14300
C1265       C  0.92901572  0.47951325  0.90668599    -0.01200
C1266       C  0.92055886  0.45678572  0.90011729    -0.09200
C1267       C  0.92439428  0.44760561  0.87725793    -0.18100
C1268       C  0.93670852  0.46101417  0.85981675     0.04300
C1269       C  0.94609988  0.48365270  0.86676735     0.18500
C1270       C  0.94236529  0.49257991  0.89005848    -0.19500
C1271       C  0.95869910  0.49751824  0.85024350    -0.20800
C1272       C  0.96196012  0.48959575  0.82692422    -0.19300
C1273       C  0.95281240  0.46752233  0.81949242     0.19900
C1274       C  0.94008257  0.45281900  0.83579387     0.02000
C1275       C  0.93162910  0.43046075  0.82734355    -0.14000
C1276       C  0.93742622  0.42228042  0.80443031    -0.11700
C1277       C  0.95127067  0.43627341  0.78909037     0.01600
C1278       C  0.95744287  0.45952107  0.79614964    -0.23900
H1279       H  0.91032571  0.44615434  0.91264180     0.09600
H1280       H  0.91708889  0.43015123  0.87368419     0.13100
H1281       H  0.94883541  0.51020611  0.89483601     0.11900
H1282       H  0.96605941  0.51467926  0.85537970     0.13100
H1283       H  0.97201568  0.50070594  0.81467164     0.12100
H1284       H  0.92143914  0.41841420  0.83835294     0.09200
H1285       H  0.93252165  0.40425919  0.79931879     0.12400
H1286       H  0.96793048  0.47051211  0.78413938     0.14300
C1287       C  0.91529248  0.50541703  0.13736943    -0.01200
C1288       C  0.89632170  0.49722860  0.15148990    -0.09200
C1289       C  0.90043774  0.48718954  0.17387336    -0.18100
C1290       C  0.92388501  0.48449027  0.18266578     0.04300
C1291       C  0.94275161  0.49545891  0.16967442     0.18500
C1292       C  0.93829594  0.50594806  0.14723621    -0.19500
C1293       C  0.96617211  0.49419321  0.17827788    -0.20800
C1294       C  0.97156137  0.48030994  0.19820842    -0.19300
C1295       C  0.95372989  0.46693762  0.20957057     0.19900
C1296       C  0.92949245  0.46954233  0.20256737     0.02000
C1297       C  0.91227844  0.45496892  0.21399384    -0.14000
C1298       C  0.91927028  0.43612861  0.22876762    -0.11700
C1299       C  0.94340178  0.43192077  0.23330294     0.01600
C1300       C  0.96027353  0.44893277  0.22584132    -0.23900
H1301       H  0.87819437  0.49758758  0.14477555     0.09600
H1302       H  0.88499076  0.48080721  0.18338101     0.13100
H1303       H  0.95304363  0.51274136  0.13670839     0.11900
H1304       H  0.98060838  0.50286252  0.16874844     0.13100
H1305       H  0.99006328  0.47851681  0.20354500     0.12100
H1306       H  0.89347619  0.45623427  0.21023675     0.09200
H1307       H  0.90590597  0.42354251  0.23487319     0.12400
H1308       H  0.97895843  0.44607091  0.22996975     0.14300
C1309       C  0.86441923  0.49726373  0.06746155    -0.01200
C1310       C  0.84329893  0.50550241  0.07777432    -0.09200
C1311       C  0.82145294  0.49527553  0.07184985    -0.18100
C1312       C  0.82017043  0.47576890  0.05588177     0.04300
C1313       C  0.84168312  0.46804906  0.04472963     0.18500
C1314       C  0.86354415  0.47913501  0.05029312    -0.19500
C1315       C  0.84136086  0.44868559  0.02892176    -0.20800
C1316       C  0.82025708  0.43641337  0.02440965    -0.19300
C1317       C  0.79889130  0.44343389  0.03529888     0.19900
C1318       C  0.79843672  0.46335663  0.05101320     0.02000
C1319       C  0.77621262  0.46993820  0.06115448    -0.14000
C1320       C  0.75516953  0.45820397  0.05471186    -0.11700
C1321       C  0.75567102  0.43945443  0.03830648     0.01600
C1322       C  0.77772087  0.43125013  0.02975605    -0.23900
H1323       H  0.84381001  0.51956708  0.09107639     0.09600
H1324       H  0.80605717  0.50252507  0.08075790     0.13100
H1325       H  0.88001564  0.47265687  0.04246747     0.11900
H1326       H  0.85760142  0.44277590  0.02024390     0.13100
H1327       H  0.82059638  0.42146524  0.01210158     0.12100
H1328       H  0.77429893  0.48462576  0.07342283     0.09200
H1329       H  0.73827533  0.46474744  0.06144323     0.12400
H1330       H  0.77807899  0.41652724  0.01716726     0.14300
C1331       C  0.99100151  0.79683368  0.20154805    -0.01200
C1332       C  0.01529113  0.79157058  0.20152575    -0.09200
C1333       C  0.02505598  0.77708857  0.18384326    -0.18100
C1334       C  0.01068173  0.76740558  0.16542079     0.04300
C1335       C  0.98618801  0.77392542  0.16475531     0.18500
C1336       C  0.97661488  0.78872398  0.18266478    -0.19500
C1337       C  0.97137675  0.76518543  0.14656897    -0.20800
C1338       C  0.98038698  0.75000017  0.12902699    -0.19300
C1339       C  0.00433971  0.74287099  0.12944216     0.19900
C1340       C  0.01978087  0.75150010  0.14770833     0.02000
C1341       C  0.04374606  0.74380793  0.14752615    -0.14000
C1342       C  0.05224319  0.72889889  0.12963460    -0.11700
C1343       C  0.03726424  0.72074162  0.11134572     0.01600
C1344       C  0.01311428  0.72739938  0.11157823    -0.23900
H1345       H  0.02659480  0.79778432  0.21595252     0.09600
H1346       H  0.04386066  0.77356351  0.18541757     0.13100
H1347       H  0.95774826  0.79299565  0.18262269     0.11900
H1348       H  0.95266086  0.77001582  0.14598034     0.13100
H1349       H  0.96849035  0.74363919  0.11515096     0.12100
H1350       H  0.05655106  0.74903060  0.16086854     0.09200
H1351       H  0.07086909  0.72374997  0.13016651     0.12400
H1352       H  0.00134659  0.72113498  0.09753229     0.14300
C1353       C  0.21442808  0.75357753  0.03011767    -0.01200
C1354       C  0.20825607  0.73260891  0.01775797    -0.09200
C1355       C  0.19001549  0.71781143  0.02627721    -0.18100
C1356       C  0.17771894  0.72369309  0.04750705     0.04300
C1357       C  0.18727520  0.74233679  0.06192525     0.18500
C1358       C  0.20562263  0.75698698  0.05318626    -0.19500
C1359       C  0.17699211  0.74772278  0.08399233    -0.20800
C1360       C  0.15608660  0.73652920  0.09109309    -0.19300
C1361       C  0.14459845  0.72034388  0.07589927     0.19900
C1362       C  0.15542591  0.71317309  0.05412113     0.02000
C1363       C  0.14238736  0.69761444  0.03899002    -0.14000
C1364       C  0.11898867  0.69077393  0.04464980    -0.11700
C1365       C  0.10812274  0.69881770  0.06572161     0.01600
C1366       C  0.12154534  0.71270170  0.08168122    -0.23900
H1367       H  0.21573775  0.72910364  0.00026968     0.09600
H1368       H  0.18497587  0.70279625  0.01529056     0.13100
H1369       H  0.21092475  0.77274086  0.06314596     0.11900
H1370       H  0.18453008  0.76149584  0.09532643     0.13100
H1371       H  0.14801462  0.74179546  0.10787424     0.12100
H1372       H  0.14926495  0.69166271  0.02201890     0.09200
H1373       H  0.10906120  0.68003475  0.03198602     0.12400
H1374       H  0.11352802  0.71884955  0.09819576     0.14300
C1375       C  0.93209765  0.70324551  0.13258995    -0.01200
C1376       C  0.91261708  0.71388653  0.14404553    -0.09200
C1377       C  0.91465204  0.72272056  0.16715889    -0.18100
C1378       C  0.93660263  0.72165489  0.17944984     0.04300
C1379       C  0.95538805  0.70804761  0.16903970     0.18500
C1380       C  0.95286779  0.69862088  0.14577470    -0.19500
C1381       C  0.97731691  0.70612246  0.18088597    -0.20800
C1382       C  0.98189422  0.71968746  0.20126634    -0.19300
C1383       C  0.96471232  0.73562557  0.21004849     0.19900
C1384       C  0.94135825  0.73575326  0.20018065     0.02000
C1385       C  0.92463522  0.75215882  0.20969752    -0.14000
C1386       C  0.93198722  0.77050106  0.22488933    -0.11700
C1387       C  0.95588775  0.77248441  0.23156016     0.01600
C1388       C  0.97151310  0.75348964  0.22641378    -0.23900
H1389       H  0.89615884  0.71703413  0.13436860     0.09600
H1390       H  0.89917020  0.73164718  0.17422159     0.13100
H1391       H  0.96798463  0.69028127  0.13703384     0.11900
H1392       H  0.99157824  0.69539941  0.17341507     0.13100
H1393       H  0.99961735  0.71916084  0.20899103     0.12100
H1394       H  0.90624636  0.75265151  0.20415204     0.09200
H1395       H  0.91948893  0.78460074  0.22927545     0.12400
H1396       H  0.98994608  0.75467317  0.23218514     0.14300
C1397       C  0.90914045  0.74358181  0.05972046    -0.01200
C1398       C  0.90245365  0.76247797  0.07485392    -0.09200
C1399       C  0.88653732  0.77997919  0.06739607    -0.18100
C1400       C  0.87666578  0.77935969  0.04430098     0.04300
C1401       C  0.88602812  0.76243829  0.02780559     0.18500
C1402       C  0.90193564  0.74441834  0.03567351    -0.19500
C1403       C  0.87855080  0.76311496  0.00394354    -0.20800
C1404       C  0.86053690  0.77876670  0.99673224    -0.19300
C1405       C  0.84889210  0.79335628  0.01343228     0.19900
C1406       C  0.85708589  0.79416027  0.03739876     0.02000
C1407       C  0.84404025  0.80814897  0.05394146    -0.14000
C1408       C  0.82250997  0.81891948  0.04746398    -0.11700
C1409       C  0.81363060  0.81673647  0.02423872     0.01600
C1410       C  0.82798776  0.80566711  0.00683005    -0.23900
H1411       H  0.90873077  0.76329113  0.09314015     0.09600
H1412       H  0.88195773  0.79354229  0.08027529     0.13100
H1413       H  0.90760522  0.73049048  0.02347252     0.11900
H1414       H  0.88621961  0.75104228  0.99092607     0.13100
H1415       H  0.85460321  0.77827692  0.97831284     0.12100
H1416       H  0.84898474  0.80956550  0.07248915     0.09200
H1417       H  0.81198878  0.82766731  0.06112702     0.12400
H1418       H  0.82174763  0.80477392  0.98854433     0.14300
C1419       C  0.94093735  0.72893923  0.91596051    -0.01200
C1420       C  0.96580020  0.73021165  0.91348717    -0.09200
C1421       C  0.97617879  0.74588275  0.89688699    -0.18100
C1422       C  0.96186931  0.76052118  0.88195412     0.04300
C1423       C  0.93672160  0.75908597  0.88471511     0.18500
C1424       C  0.92665884  0.74360307  0.90154011    -0.19500
C1425       C  0.92154200  0.77280734  0.87038802    -0.20800
C1426       C  0.93070046  0.78719971  0.85245968    -0.19300
C1427       C  0.95527278  0.78836534  0.84855218     0.19900
C1428       C  0.97135499  0.77577144  0.86373547     0.02000
C1429       C  0.99607874  0.77831652  0.85928778    -0.14000
C1430       C  0.00420308  0.79075549  0.83917798    -0.11700
C1431       C  0.98796054  0.80097458  0.82311142     0.01600
C1432       C  0.96371501  0.80096531  0.82863179    -0.23900
H1433       H  0.97728206  0.71916788  0.92447058     0.09600
H1434       H  0.99537812  0.74579757  0.89579406     0.13100
H1435       H  0.90739545  0.74274119  0.90307863     0.11900
H1436       H  0.90235715  0.77191687  0.87264623     0.13100
H1437       H  0.91841479  0.79699478  0.84114517     0.12100
H1438       H  0.00944638  0.77004188  0.87039677     0.09200
H1439       H  0.02311940  0.79099719  0.83524473     0.12400
H1440       H  0.95121599  0.80910782  0.81626094     0.14300
C1441       C  0.87004186  0.70867959  0.96229986    -0.01200
C1442       C  0.86220789  0.70501407  0.98576161    -0.09200
C1443       C  0.84110218  0.71564413  0.99381227    -0.18100
C1444       C  0.82730534  0.73029891  0.97847202     0.04300
C1445       C  0.83415013  0.73171725  0.95407397     0.18500
C1446       C  0.85536821  0.72108389  0.94631537    -0.19500
C1447       C  0.82065330  0.74506149  0.93783316    -0.20800
C1448       C  0.80167859  0.75888098  0.94568151    -0.19300
C1449       C  0.79633814  0.76021512  0.97002477     0.19900
C1450       C  0.80835093  0.74522000  0.98671962     0.02000
C1451       C  0.80267190  0.74784880  0.01120503    -0.14000
C1452       C  0.78857280  0.76691751  0.01892214    -0.11700
C1453       C  0.77924755  0.78320994  0.00240246     0.01600
C1454       C  0.78118405  0.77845634  0.97801671    -0.23900
H1455       H  0.87318798  0.69526096  0.99836375     0.09600
H1456       H  0.83659800  0.71289938  0.01232254     0.13100
H1457       H  0.86112008  0.72352104  0.92797550     0.11900
H1458       H  0.82551512  0.74572866  0.91910793     0.13100
H1459       H  0.79234106  0.77000146  0.93286479     0.12100
H1460       H  0.81050894  0.73685191  0.02492711     0.09200
H1461       H  0.78674424  0.77022984  0.03789789     0.12400
H1462       H  0.77364835  0.79102194  0.96531702     0.14300
C1463       C  0.09001224  0.70968692  0.94900154    -0.01200
C1464       C  0.10829549  0.71428169  0.93259019    -0.09200
C1465       C  0.12846221  0.72726137  0.93915771    -0.18100
C1466       C  0.13098684  0.73647748  0.96250376     0.04300
C1467       C  0.11239559  0.73178238  0.97920418     0.18500
C1468       C  0.09232907  0.71815745  0.97245499    -0.19500
C1469       C  0.11384421  0.74096843  0.00241652    -0.20800
C1470       C  0.13335340  0.75468103  0.00942072    -0.19300
C1471       C  0.15214845  0.75915484  0.99354701     0.19900
C1472       C  0.15132438  0.75005769  0.96987820     0.02000
C1473       C  0.17114110  0.75456912  0.95480626    -0.14000
C1474       C  0.19146654  0.76625458  0.96337428    -0.11700
C1475       C  0.19256741  0.77421731  0.98698515     0.01600
C1476       C  0.17225252  0.77187843  0.00151404    -0.23900
H1477       H  0.10701106  0.70778218  0.91440436     0.09600
H1478       H  0.14158672  0.73001856  0.92539508     0.13100
H1479       H  0.07817474  0.71481513  0.98522510     0.11900
H1480       H  0.09979312  0.73752122  0.01526113     0.13100
H1481       H  0.13400935  0.76136462  0.02758151     0.12100
H1482       H  0.17190913  0.74853017  0.93656506     0.09200
H1483       H  0.20679623  0.76818138  0.95176167     0.12400
H1484       H  0.17271128  0.77871675  0.01962101     0.14300
C1485       C  0.00690940  0.76644936  0.78901696    -0.01200
C1486       C  0.03040927  0.75852802  0.79084859    -0.09200
C1487       C  0.03608692  0.73944752  0.80575893    -0.18100
C1488       C  0.01829475  0.72825546  0.81980010     0.04300
C1489       C  0.99409121  0.73449243  0.81553083     0.18500
C1490       C  0.98854657  0.75282760  0.79928814    -0.19500
C1491       C  0.97592535  0.72448354  0.82951675    -0.20800
C1492       C  0.98150690  0.71042603  0.84930348    -0.19300
C1493       C  0.00534056  0.70567078  0.85517671     0.19900
C1494       C  0.02390205  0.71320046  0.83955680     0.02000
C1495       C  0.04756008  0.70698088  0.84547254    -0.14000
C1496       C  0.05290159  0.69686980  0.86748044    -0.11700
C1497       C  0.03491896  0.69209958  0.88410414     0.01600
C1498       C  0.01098226  0.69500620  0.87731638    -0.23900
H1499       H  0.04474644  0.76866980  0.78272894     0.09600
H1500       H  0.05479229  0.73543943  0.80745426     0.13100
H1501       H  0.97024213  0.75882497  0.79742816     0.11900
H1502       H  0.95741430  0.72906168  0.82627297     0.13100
H1503       H  0.96717577  0.70435548  0.86079290     0.12100
H1504       H  0.06250121  0.71058844  0.83394358     0.09200
H1505       H  0.07145904  0.69389638  0.87203574     0.12400
H1506       H  0.99692661  0.69093818  0.88997737     0.14300
loop_ 
_geom_bond_atom_site_label_1 
_geom_bond_atom_site_label_2 
_geom_bond_distance 
_geom_bond_site_symmetry_2 
_ccdc_geom_bond_type 
C1            N2   1.358       .  A
C1            N6   1.354       .  A
C1         C1463   1.480       .  S
N2            C3   1.362       .  A
C3            N4   1.362       .  A
C3           C51   1.458       .  S
N4            C5   1.358       .  A
C5            N6   1.355       .  A
C5         C1497   1.476       .  S
C7            N8   1.356       .  A
C7           N12   1.354       .  A
C7         C1441   1.475       .  S
N8            C9   1.359       .  A
C9           N10   1.363       .  A
C9           C57   1.458       .  S
N10          C11   1.360       .  A
C11          N12   1.356       .  A
C11        C1419   1.485       .  S
C13          N14   1.349       .  A
C13          N18   1.356       .  A
C13        C1375   1.477       .  S
N14          C15   1.352       .  A
C15          N16   1.364       .  A
C15        C1397   1.490       .  S
N16          C17   1.370       .  A
C17          N18   1.366       .  A
C17          C74   1.470       .  S
C19          N20   1.355       .  A
C19          N24   1.359       .  A
C19        C1343   1.481       .  S
N20          C21   1.354       .  A
C21          N22   1.359       .  A
C21        C1365   1.485       .  S
N22          C23   1.362       .  A
C23          N24   1.363       .  A
C23          C80   1.460       .  S
C25          N26   1.355       .  A
C25          N30   1.360       .  A
C25        C1287   1.482       .  S
N26          C27   1.353       .  A
C27          N28   1.357       .  A
C27        C1309   1.466       .  S
N28          C29   1.361       .  A
C29          N30   1.363       .  A
C29          C77   1.461       .  S
C31          N32   1.351       .  A
C31          N36   1.359       .  A
C31        C1243   1.477       .  S
N32          C33   1.350       .  A
C33          N34   1.366       .  A
C33        C1265   1.488       .  S
N34          C35   1.371       .  A
C35          N36   1.363       .  A
C35          C54   1.474       .  S
C37          N38   1.356       .  A
C37          N42   1.361       .  A
C37        C1199   1.480       .  S
N38          C39   1.353       .  A
C39          N40   1.357       .  A
C39        C1233   1.468       .  S
N40          C41   1.359       .  A
C41          N42   1.363       .  A
C41          C60   1.461       .  S
C43          N44   1.355       .  A
C43          N48   1.360       .  A
C43        C1155   1.482       .  S
N44          C45   1.352       .  A
C45          N46   1.360       .  A
C45        C1189   1.480       .  S
N46          C47   1.365       .  A
C47          N48   1.362       .  A
C47          C71   1.467       .  S
O49         Zr61   2.447       .  S
O49          C51   1.288       .  A
O50         Zr87   2.417   1_456  S
O50          C51   1.284       .  A
O52         Zr64   2.459       .  S
O52          C54   1.290       .  A
O53         Zr88   2.446   1_556  S
O53          C54   1.290       .  A
O55         Zr64   2.452       .  S
O55          C57   1.289       .  A
O56         Zr87   2.409   1_556  S
O56          C57   1.283       .  A
O58         Zr61   2.452       .  S
O58          C60   1.289       .  A
O59         Zr88   2.418   1_456  S
O59          C60   1.285       .  A
Zr61         O62   2.433       .  S
Zr61         O63   2.438       .  S
Zr61         O67   2.373   1_455  S
Zr61         O68   2.364   1_455  S
Zr61         O91   2.368   1_556  S
Zr61         O93   2.376   1_556  S
O62         H105   0.990   1_455  S
O63         H104   0.990       .  S
O63         H108   0.990       .  S
Zr64         O65   2.436       .  S
Zr64         O66   2.433       .  S
Zr64         O68   2.374       .  S
Zr64         O67   2.373       .  S
Zr64         O92   2.377   1_556  S
Zr64         O94   2.377   1_556  S
O65         H106   0.990       .  S
O65         H109   0.990       .  S
O66          H99   0.990   1_556  S
O67         Zr87   2.389   1_556  S
O68         Zr88   2.392   1_556  S
O68          H95   0.966       .  S
O69         Zr81   2.436       .  S
O69          C71   1.286       .  A
O70         Zr88   2.442   1_455  S
O70          C71   1.289       .  A
O72         Zr84   2.444       .  S
O72          C74   1.288       .  A
O73         Zr87   2.433       .  S
O73          C74   1.287       .  A
O75         Zr84   2.429       .  S
O75          C77   1.285       .  A
O76         Zr88   2.439       .  S
O76          C77   1.288       .  A
O78         Zr81   2.430       .  S
O78          C80   1.285       .  A
O79         Zr87   2.433   1_455  S
O79          C80   1.287       .  A
Zr81         O82   2.436       .  S
Zr81         O83   2.433       .  S
Zr81         O89   2.379   1_455  S
Zr81         O90   2.370   1_455  S
Zr81         O93   2.366       .  S
Zr81         O91   2.359       .  S
O82         H102   0.990       .  S
O82         H107   0.990       .  S
O83         H103   0.990       .  S
Zr84         O85   2.435       .  S
Zr84         O86   2.439       .  S
Zr84         O90   2.366       .  S
Zr84         O89   2.372       .  S
Zr84         O94   2.381       .  S
Zr84         O92   2.367       .  S
O85         H101   0.990       .  S
O86         H100   0.990       .  S
O86         H110   0.990       .  S
Zr87         O90   2.372       .  S
Zr87         O92   2.384       .  S
Zr87         O93   2.387   1_655  S
Zr88         O89   2.387       .  S
Zr88         O91   2.382   1_655  S
Zr88         O94   2.385       .  S
O89          H97   0.967       .  S
O92          H96   0.967       .  S
O93          H98   0.966       .  S
C111        N112   1.353       .  A
C111        N116   1.358       .  A
C111       C1123   1.476       .  S
N112        C113   1.355       .  A
C113        N114   1.361       .  A
C113       C1133   1.483       .  S
N114        C115   1.361       .  A
C115        N116   1.364       .  A
C115        C161   1.466       .  S
C117        N118   1.357       .  A
C117        N122   1.361       .  A
C117       C1089   1.488       .  S
N118        C119   1.356       .  A
C119        N120   1.358       .  A
C119       C1067   1.482   1_545  S
N120        C121   1.361       .  A
C121        N122   1.363       .  A
C121        C167   1.461       .  S
C123        N124   1.349       .  A
C123        N128   1.362       .  A
C123       C1023   1.476       .  S
N124        C125   1.350       .  A
C125        N126   1.359       .  A
C125       C1045   1.475       .  S
N126        C127   1.364       .  A
C127        N128   1.368       .  A
C127        C184   1.469       .  S
C129        N130   1.352       .  A
C129        N134   1.360       .  A
C129        C979   1.477       .  S
N130        C131   1.352       .  A
C131        N132   1.358       .  A
C131       C1001   1.482       .  S
N132        C133   1.364       .  A
C133        N134   1.364       .  A
C133        C190   1.462       .  S
C135        N136   1.360       .  A
C135        N140   1.355       .  A
C135        C935   1.491       .  S
N136        C137   1.363       .  A
C137        N138   1.368       .  A
C137        C187   1.475       .  S
N138        C139   1.365       .  A
C139        N140   1.357       .  A
C139        C957   1.494       .  S
C141        N142   1.359       .  A
C141        N146   1.350       .  A
C141        C891   1.464       .  S
N142        C143   1.364       .  A
C143        N144   1.362       .  A
C143        C164   1.462       .  S
N144        C145   1.358       .  A
C145        N146   1.350       .  A
C145        C925   1.465       .  S
C147        N148   1.362       .  A
C147        N152   1.357       .  A
C147        C847   1.491       .  S
N148        C149   1.365       .  A
C149        N150   1.369       .  A
C149        C170   1.477       .  S
N150        C151   1.365       .  A
C151        N152   1.354       .  A
C151        C869   1.488   1_545  S
C153        N154   1.351       .  A
C153        N158   1.357       .  A
C153        C825   1.474       .  S
N154        C155   1.353       .  A
C155        N156   1.362       .  A
C155        C803   1.469       .  S
N156        C157   1.364       .  A
C157        N158   1.361       .  A
C157        C181   1.464       .  S
O159       Zr171   2.436       .  S
O159        C161   1.286       .  A
O160       Zr197   2.441       .  S
O160        C161   1.289       .  A
O162       Zr174   2.447       .  S
O162        C164   1.288       .  A
O163       Zr198   2.423   1_556  S
O163        C164   1.286       .  A
O165       Zr174   2.444       .  S
O165        C167   1.287       .  A
O166       Zr197   2.427   1_556  S
O166        C167   1.285       .  A
O168       Zr171   2.454       .  S
O168        C170   1.289       .  A
O169       Zr198   2.451       .  S
O169        C170   1.290       .  A
Zr171       O172   2.434       .  S
Zr171       O173   2.436       .  S
Zr171       O177   2.385       .  S
Zr171       O178   2.373       .  S
Zr171       O201   2.371       .  S
Zr171       O203   2.375       .  S
O172        H215   0.990       .  S
O173        H214   0.990       .  S
O173        H218   0.990       .  S
Zr174       O175   2.435       .  S
Zr174       O176   2.434       .  S
Zr174       O178   2.373   1_556  S
Zr174       O177   2.376   1_556  S
Zr174       O202   2.373       .  S
Zr174       O204   2.371       .  S
O175        H216   0.990       .  S
O175        H219   0.990   1_556  S
O176        H209   0.990       .  S
O177       Zr197   2.383       .  S
O178       Zr198   2.389       .  S
O178        H205   0.966       .  S
O179       Zr191   2.427       .  S
O179        C181   1.284       .  A
O180       Zr198   2.446       .  S
O180        C181   1.289       .  A
O182       Zr194   2.463       .  S
O182        C184   1.291       .  A
O183       Zr197   2.425   1_556  S
O183        C184   1.286       .  A
O185       Zr194   2.464       .  S
O185        C187   1.291       .  A
O186       Zr198   2.431   1_556  S
O186        C187   1.288       .  A
O188       Zr191   2.453       .  S
O188        C190   1.288       .  A
O189       Zr197   2.418       .  S
O189        C190   1.284       .  A
Zr191       O192   2.437       .  S
Zr191       O193   2.437       .  S
Zr191       O199   2.370       .  S
Zr191       O200   2.359       .  S
Zr191       O203   2.368       .  S
Zr191       O201   2.386       .  S
O192        H212   0.990       .  S
O192        H217   0.990       .  S
O193        H213   0.990       .  S
Zr194       O195   2.434       .  S
Zr194       O196   2.435       .  S
Zr194       O200   2.373   1_556  S
Zr194       O199   2.379   1_556  S
Zr194       O204   2.367       .  S
Zr194       O202   2.375       .  S
O195        H211   0.990       .  S
O196        H210   0.990       .  S
O196        H220   0.990       .  S
Zr197       O200   2.383       .  S
Zr197       O202   2.391   1_554  S
Zr197       O203   2.384       .  S
Zr198       O199   2.396       .  S
Zr198       O201   2.380       .  S
Zr198       O204   2.389   1_554  S
O199        H207   0.964       .  S
O202        H206   0.965       .  S
O203        H208   0.966       .  S
C221        N222   1.359       .  A
C221        N226   1.361       .  A
C221        C759   1.482       .  S
N222        C223   1.357       .  A
C223        N224   1.356       .  A
C223        C781   1.478   1_545  S
N224        C225   1.358       .  A
C225        N226   1.361       .  A
C225        C277   1.459       .  S
C227        N228   1.358       .  A
C227        N232   1.357       .  A
C227        C749   1.478       .  S
N228        C229   1.361       .  A
C229        N230   1.360       .  A
C229        C271   1.460       .  S
N230        C231   1.358       .  A
C231        N232   1.358       .  A
C231        C715   1.487       .  S
C233        N234   1.359       .  A
C233        N238   1.349       .  A
C233        C671   1.482       .  S
N234        C235   1.367       .  A
C235        N236   1.370       .  A
C235        C300   1.474       .  S
N236        C237   1.364       .  A
C237        N238   1.351       .  A
C237        C705   1.492       .  S
C239        N240   1.360       .  A
C239        N244   1.352       .  A
C239        C639   1.476       .  S
N240        C241   1.364       .  A
C241        N242   1.365       .  A
C241        C294   1.473       .  S
N242        C243   1.364       .  A
C243        N244   1.355       .  A
C243        C649   1.489       .  S
C245        N246   1.350       .  A
C245        N250   1.353       .  A
C245        C583   1.470       .  S
N246        C247   1.354       .  A
C247        N248   1.364       .  A
C247        C605   1.486       .  S
N248        C249   1.366       .  A
C249        N250   1.360       .  A
C249        C291   1.460       .  S
C251        N252   1.360       .  A
C251        N256   1.352       .  A
C251        C539   1.488       .  S
N252        C253   1.367       .  A
C253        N254   1.365       .  A
C253        C280   1.466       .  S
N254        C255   1.361       .  A
C255        N256   1.354       .  A
C255        C561   1.489   1_545  S
C257        N258   1.349       .  A
C257        N262   1.359       .  A
C257        C507   1.473       .  S
N258        C259   1.350       .  A
C259        N260   1.361       .  A
C259        C517   1.476       .  S
N260        C261   1.365       .  A
C261        N262   1.366       .  A
C261        C274   1.467       .  S
C263        N264   1.358       .  A
C263        N268   1.351       .  A
C263        C463   1.486       .  S
N264        C265   1.364       .  A
C265        N266   1.366       .  A
C265        C297   1.466       .  S
N266        C267   1.361       .  A
C267        N268   1.352       .  A
C267        C485   1.486       .  S
O269       Zr281   2.441       .  S
O269        C271   1.287       .  A
O270       Zr307   2.421       .  S
O270        C271   1.285       .  A
O272       Zr284   2.452       .  S
O272        C274   1.289       .  A
O273       Zr308   2.428   1_455  S
O273        C274   1.286       .  A
O275       Zr284   2.428       .  S
O275        C277   1.285       .  A
O276       Zr307   2.435   1_455  S
O276        C277   1.287       .  A
O278       Zr281   2.435       .  S
O278        C280   1.284       .  A
O279       Zr308   2.444       .  S
O279        C280   1.289       .  A
Zr281       O282   2.436       .  S
Zr281       O283   2.436       .  S
Zr281       O287   2.372       .  S
Zr281       O288   2.378       .  S
Zr281       O311   2.371       .  S
Zr281       O313   2.366       .  S
O282        H325   0.990       .  S
O283        H324   0.990       .  S
O283        H328   0.990       .  S
Zr284       O285   2.436       .  S
Zr284       O286   2.435       .  S
Zr284       O288   2.373   1_455  S
Zr284       O287   2.379   1_455  S
Zr284       O312   2.378       .  S
Zr284       O314   2.362       .  S
O285        H326   0.990       .  S
O285        H329   0.990       .  S
O286        H319   0.990       .  S
O287       Zr307   2.388       .  S
O288       Zr308   2.386       .  S
O288        H315   0.966       .  S
O289       Zr301   2.435       .  S
O289        C291   1.286       .  A
O290       Zr308   2.429       .  S
O290        C291   1.286       .  A
O292       Zr304   2.458       .  S
O292        C294   1.290       .  A
O293       Zr307   2.433   1_455  S
O293        C294   1.287       .  A
O295       Zr304   2.451       .  S
O295        C297   1.289       .  A
O296       Zr308   2.427   1_455  S
O296        C297   1.287       .  A
O298       Zr301   2.450       .  S
O298        C300   1.289       .  A
O299       Zr307   2.444       .  S
O299        C300   1.289       .  A
Zr301       O302   2.435       .  S
Zr301       O303   2.435       .  S
Zr301       O309   2.370       .  S
Zr301       O310   2.371       .  S
Zr301       O313   2.364       .  S
Zr301       O311   2.374       .  S
O302        H322   0.990       .  S
O302        H327   0.990       .  S
O303        H323   0.991       .  S
Zr304       O305   2.435       .  S
Zr304       O306   2.438       .  S
Zr304       O310   2.373   1_455  S
Zr304       O309   2.380   1_455  S
Zr304       O314   2.372       .  S
Zr304       O312   2.367       .  S
O305        H321   0.990       .  S
O306        H320   0.990       .  S
O306        H330   0.990       .  S
Zr307       O310   2.382       .  S
Zr307       O312   2.392   1_655  S
Zr307       O313   2.385       .  S
Zr308       O309   2.395       .  S
Zr308       O311   2.380       .  S
Zr308       O314   2.386   1_655  S
O309        H317   0.966       .  S
O312        H316   0.965       .  S
O313        H318   0.965       .  S
C331        S332   1.801       .  S
C331        S335   1.798       .  S
C331        C339   1.352       .  D
S332        C333   1.795       .  S
C333        C334   1.351       .  D
C333        C595   1.485       .  S
C334        S335   1.791       .  S
C334        C451   1.489       .  S
C336        S340   1.790       .  S
C336        C337   1.352       .  D
C336       C1167   1.483       .  S
C337        S338   1.797       .  S
C337       C1299   1.490       .  S
S338        C339   1.800       .  S
C339        S340   1.796       .  S
C341        S342   1.800       .  S
C341        S345   1.799       .  S
C341        C349   1.353       .  D
S342        C343   1.796       .  S
C343        C344   1.350       .  D
C343        C473   1.491       .  S
C344        S345   1.792       .  S
C344        C495   1.480       .  S
C346        S350   1.794       .  S
C346        C347   1.350       .  D
C346        C859   1.490       .  S
C347        S348   1.794       .  S
C347        C815   1.487       .  S
S348        C349   1.801       .  S
C349        S350   1.802       .  S
C351        S352   1.801       .  S
C351        S355   1.795       .  S
C351        C359   1.349       .  D
S352        C353   1.796       .  S
C353        C354   1.352       .  D
C353       C1177   1.485       .  S
C354        S355   1.784       .  S
C354       C1211   1.486       .  S
C356        S360   1.788       .  S
C356        C357   1.354       .  D
C356        C947   1.492       .  S
C357        S358   1.796       .  S
C357        C837   1.482       .  S
S358        C359   1.797       .  S
C359        S360   1.797       .  S
C361        S362   1.797       .  S
C361        S365   1.802       .  S
C361        C369   1.352       .  D
S362        C363   1.784       .  S
C363        C364   1.350       .  D
C363       C1013   1.484       .  S
C364        S365   1.799       .  S
C364       C1111   1.485       .  S
C366        S370   1.803       .  S
C366        C367   1.353       .  D
C366        C551   1.494       .  S
C367        S368   1.783       .  S
C367        C617   1.481       .  S
S368        C369   1.795       .  S
C369        S370   1.801       .  S
C371        S372   1.800       .  S
C371        S375   1.801       .  S
C371        C379   1.354       .  D
S372        C373   1.796       .  S
C373        C374   1.351       .  D
C373        C573   1.491       .  S
C374        S375   1.792       .  S
C374        C529   1.482       .  S
C376        S380   1.792       .  S
C376        C377   1.350       .  D
C376       C1331   1.483       .  S
C377        S378   1.798       .  S
C377       C1387   1.490       .  S
S378        C379   1.803       .  S
C379        S380   1.797       .  S
C381        S382   1.800       .  S
C381        S385   1.801       .  S
C381        C389   1.356       .  D
S382        C383   1.804       .  S
C383        C384   1.352       .  D
C383        C661   1.485       .  S
C384        S385   1.788       .  S
C384        C771   1.493       .  S
C386        S390   1.784       .  S
C386        C387   1.352       .  D
C386        C903   1.482       .  S
C387        S388   1.806       .  S
C387        C969   1.499       .  S
S388        C389   1.809       .  S
C389        S390   1.795       .  S
C391        S392   1.804       .  S
C391        S395   1.799   1_655  S
C391        C399   1.353       .  D
S392        C393   1.799       .  S
C393        C394   1.349       .  D
C393       C1277   1.491       .  S
C394        S395   1.783   1_655  S
C394       C1221   1.477   1_655  S
C396        S400   1.787       .  S
C396        C397   1.350       .  D
C396        C627   1.487       .  S
C397        S398   1.799       .  S
C397        C683   1.490       .  S
S398        C399   1.803       .  S
C399        S400   1.799       .  S
C401        S402   1.809       .  S
C401        S405   1.802   1_554  S
C401        C409   1.356       .  D
S402        C403   1.799       .  S
C403        C404   1.347   1_554  D
C403        C881   1.494       .  S
C404        S405   1.790       .  S
C404        C913   1.479       .  S
C406        S410   1.795       .  S
C406        C407   1.352   1_556  D
C406       C1475   1.494       .  S
C407        S408   1.802       .  S
C407       C1353   1.490       .  S
S408        C409   1.801       .  S
C409        S410   1.801   1_554  S
C411        S412   1.797       .  S
C411        S415   1.802   1_554  S
C411        C419   1.350       .  D
S412        C413   1.789       .  S
C413        C414   1.349       .  D
C413        C991   1.481       .  S
C414        S415   1.791   1_554  S
C414       C1035   1.483   1_554  S
C416        S420   1.790   1_554  S
C416        C417   1.349       .  D
C416       C1255   1.481   1_554  S
C417        S418   1.789       .  S
C417       C1321   1.486       .  S
S418        C419   1.802       .  S
C419        S420   1.798   1_554  S
C421        S422   1.797       .  S
C421        S425   1.797       .  S
C421        C429   1.348       .  D
S422        C423   1.788       .  S
C423        C424   1.352       .  D
C423        C727   1.491   1_455  S
C424        S425   1.790       .  S
C424        C793   1.479       .  S
C426        S430   1.791       .  S
C426        C427   1.350   1_455  D
C426       C1485   1.481       .  S
C427        S428   1.784       .  S
C427       C1431   1.482       .  S
S428        C429   1.797   1_655  S
C429        S430   1.798       .  S
C431        S432   1.796       .  S
C431        S435   1.803       .  S
C431        C439   1.351       .  D
S432        C433   1.785       .  S
C433        C434   1.350       .  D
C433       C1057   1.480       .  S
C434        S435   1.794       .  S
C434       C1101   1.487       .  S
C436        S440   1.794       .  S
C436        C437   1.353       .  D
C436        C737   1.480       .  S
C437        S438   1.791       .  S
C437        C693   1.496       .  S
S438        C439   1.800       .  S
C439        S440   1.796       .  S
C441        S442   1.797       .  S
C441        S445   1.802       .  S
C441        C449   1.352       .  D
S442        C443   1.793       .  S
C443        C444   1.351       .  D
C443       C1145   1.482       .  S
C444        S445   1.792       .  S
C444       C1079   1.489       .  S
C446        S450   1.789       .  S
C446        C447   1.353       .  D
C446       C1453   1.478       .  S
C447        S448   1.799       .  S
C447       C1409   1.497       .  S
S448        C449   1.802       .  S
C449        S450   1.795       .  S
C451        C452   1.405       .  A
C451        C456   1.394       .  A
C452        C453   1.399       .  A
C452        H465   1.083       .  S
C453        C454   1.413       .  A
C453        H466   1.079       .  S
C454        C460   1.430       .  A
C454        C455   1.425   1_655  A
C455        C457   1.396       .  A
C455        C456   1.401   1_455  A
C456        H467   1.085   1_655  S
C457        C458   1.385       .  A
C457        H468   1.084       .  S
C458        C459   1.399       .  A
C458        H469   1.084       .  S
C459        C460   1.419   1_455  A
C459        C464   1.396       .  A
C460        C461   1.419       .  A
C461        C462   1.404       .  A
C461        H470   1.078       .  S
C462        C463   1.403   1_655  A
C462        H471   1.083       .  S
C463        C464   1.403       .  A
C464        H472   1.084       .  S
C473        C474   1.395       .  A
C473        C478   1.405       .  A
C474        C475   1.394       .  A
C474        H487   1.083       .  S
C475        C476   1.417       .  A
C475        H488   1.076       .  S
C476        C482   1.428       .  A
C476        C477   1.419       .  A
C477        C479   1.402       .  A
C477        C478   1.407       .  A
C478        H489   1.084       .  S
C479        C480   1.394       .  A
C479        H490   1.084       .  S
C480        C481   1.400       .  A
C480        H491   1.084       .  S
C481        C482   1.424       .  A
C481        C486   1.413       .  A
C482        C483   1.408       .  A
C483        C484   1.387       .  A
C483        H492   1.076       .  S
C484        C485   1.404       .  A
C484        H493   1.083       .  S
C485        C486   1.404       .  A
C486        H494   1.084       .  S
C495        C496   1.398       .  A
C495        C500   1.396       .  A
C496        C497   1.401       .  A
C496        H509   1.083       .  S
C497        C498   1.417       .  A
C497        H510   1.078       .  S
C498        C504   1.431       .  A
C498        C499   1.424       .  A
C499        C501   1.397       .  A
C499        C500   1.399       .  A
C500        H511   1.085       .  S
C501        C502   1.385       .  A
C501        H512   1.084       .  S
C502        C503   1.398       .  A
C502        H513   1.084       .  S
C503        C504   1.421       .  A
C503        C508   1.397       .  A
C504        C505   1.419       .  A
C505        C506   1.404       .  A
C505        H514   1.078       .  S
C506        C507   1.398       .  A
C506        H515   1.083       .  S
C507        C508   1.399       .  A
C508        H516   1.085       .  S
C517        C518   1.399       .  A
C517        C522   1.402   1_545  A
C518        C519   1.402   1_445  A
C518        H531   1.083   1_455  S
C519        C520   1.418   1_655  A
C519        H532   1.078       .  S
C520        C526   1.426       .  A
C520        C521   1.419       .  A
C521        C523   1.400       .  A
C521        C522   1.396       .  A
C522        H533   1.085       .  S
C523        C524   1.387       .  A
C523        H534   1.084       .  S
C524        C525   1.397       .  A
C524        H535   1.084       .  S
C525        C526   1.424       .  A
C525        C530   1.402       .  A
C526        C527   1.412   1_455  A
C527        C528   1.396       .  A
C527        H536   1.079       .  S
C528        C529   1.402       .  A
C528        H537   1.083       .  S
C529        C530   1.396   1_655  A
C530        H538   1.085       .  S
C539        C540   1.403       .  A
C539        C544   1.404       .  A
C540        C541   1.392       .  A
C540        H553   1.083       .  S
C541        C542   1.410       .  A
C541        H554   1.077       .  S
C542        C548   1.430       .  A
C542        C543   1.424       .  A
C543        C545   1.401       .  A
C543        C544   1.414       .  A
C544        H555   1.084       .  S
C545        C546   1.394       .  A
C545        H556   1.084       .  S
C546        C547   1.402       .  A
C546        H557   1.084       .  S
C547        C548   1.420       .  A
C547        C552   1.409       .  A
C548        C549   1.417       .  A
C549        C550   1.397       .  A
C549        H558   1.077       .  S
C550        C551   1.397       .  A
C550        H559   1.083       .  S
C551        C552   1.407       .  A
C552        H560   1.084       .  S
C561        C562   1.404       .  A
C561        C566   1.406       .  A
C562        C563   1.388       .  A
C562        H575   1.083       .  S
C563        C564   1.409       .  A
C563        H576   1.076       .  S
C564        C570   1.429       .  A
C564        C565   1.424       .  A
C565        C567   1.401       .  A
C565        C566   1.414       .  A
C566        H577   1.084       .  S
C567        C568   1.395       .  A
C567        H578   1.084       .  S
C568        C569   1.402       .  A
C568        H579   1.084       .  S
C569        C570   1.420       .  A
C569        C574   1.409       .  A
C570        C571   1.417       .  A
C571        C572   1.394       .  A
C571        H580   1.076       .  S
C572        C573   1.395       .  A
C572        H581   1.083       .  S
C573        C574   1.407       .  A
C574        H582   1.084       .  S
C583        C584   1.398       .  A
C583        C588   1.398       .  A
C584        C585   1.399       .  A
C584        H597   1.084       .  S
C585        C586   1.418       .  A
C585        H598   1.078       .  S
C586        C592   1.428       .  A
C586        C587   1.422       .  A
C587        C589   1.399       .  A
C587        C588   1.399       .  A
C588        H599   1.085       .  S
C589        C590   1.388       .  A
C589        H600   1.084       .  S
C590        C591   1.398       .  A
C590        H601   1.084       .  S
C591        C592   1.424       .  A
C591        C596   1.404       .  A
C592        C593   1.413       .  A
C593        C594   1.397       .  A
C593        H602   1.078       .  S
C594        C595   1.403       .  A
C594        H603   1.083       .  S
C595        C596   1.396       .  A
C596        H604   1.085       .  S
C605        C606   1.404       .  A
C605        C610   1.404       .  A
C606        C607   1.387       .  A
C606        H619   1.083       .  S
C607        C608   1.409       .  A
C607        H620   1.076       .  S
C608        C614   1.426       .  A
C608        C609   1.424       .  A
C609        C611   1.400       .  A
C609        C610   1.412       .  A
C610        H621   1.084       .  S
C611        C612   1.392       .  A
C611        H622   1.084       .  S
C612        C613   1.400       .  A
C612        H623   1.084       .  S
C613        C614   1.420       .  A
C613        C618   1.404       .  A
C614        C615   1.417       .  A
C615        C616   1.393       .  A
C615        H624   1.077       .  S
C616        C617   1.395       .  A
C616        H625   1.084       .  S
C617        C618   1.402       .  A
C618        H626   1.084       .  S
C627        C628   1.402       .  A
C627        C632   1.396   1_655  A
C628        C629   1.396       .  A
C628        H641   1.083       .  S
C629        C630   1.413   1_655  A
C629        H642   1.078       .  S
C630        C636   1.431       .  A
C630        C631   1.425       .  A
C631        C633   1.398       .  A
C631        C632   1.405       .  A
C632        H643   1.085       .  S
C633        C634   1.389       .  A
C633        H644   1.084       .  S
C634        C635   1.400       .  A
C634        H645   1.084       .  S
C635        C636   1.421       .  A
C635        C640   1.402       .  A
C636        C637   1.419       .  A
C637        C638   1.402       .  A
C637        H646   1.078   1_455  S
C638        C639   1.398       .  A
C638        H647   1.083       .  S
C639        C640   1.401       .  A
C640        H648   1.085       .  S
C649        C650   1.401       .  A
C649        C654   1.406       .  A
C650        C651   1.402       .  A
C650        H663   1.083       .  S
C651        C652   1.418       .  A
C651        H664   1.078       .  S
C652        C658   1.431       .  A
C652        C653   1.419       .  A
C653        C655   1.400       .  A
C653        C654   1.401       .  A
C654        H665   1.084       .  S
C655        C656   1.388       .  A
C655        H666   1.084       .  S
C656        C657   1.398       .  A
C656        H667   1.084       .  S
C657        C658   1.424       .  A
C657        C662   1.405       .  A
C658        C659   1.413       .  A
C659        C660   1.398       .  A
C659        H668   1.078       .  S
C660        C661   1.402       .  A
C660        H669   1.083       .  S
C661        C662   1.397       .  A
C662        H670   1.085       .  S
C671        C672   1.404       .  A
C671        C676   1.402       .  A
C672        C673   1.391       .  A
C672        H685   1.084       .  S
C673        C674   1.408       .  A
C673        H686   1.078       .  S
C674        C680   1.428       .  A
C674        C675   1.425       .  A
C675        C677   1.399       .  A
C675        C676   1.411       .  A
C676        H687   1.084       .  S
C677        C678   1.392       .  A
C677        H688   1.084       .  S
C678        C679   1.401       .  A
C678        H689   1.084       .  S
C679        C680   1.419       .  A
C679        C684   1.403       .  A
C680        C681   1.419       .  A
C681        C682   1.399       .  A
C681        H690   1.077       .  S
C682        C683   1.396       .  A
C682        H691   1.083       .  S
C683        C684   1.405       .  A
C684        H692   1.085       .  S
C693        C694   1.405       .  A
C693        C698   1.398       .  A
C694        C695   1.400       .  A
C694        H707   1.081       .  S
C695        C696   1.412       .  A
C695        H708   1.079       .  S
C696        C702   1.432       .  A
C696        C697   1.424       .  A
C697        C699   1.397       .  A
C697        C698   1.405       .  A
C698        H709   1.084       .  S
C699        C700   1.387       .  A
C699        H710   1.084       .  S
C700        C701   1.400       .  A
C700        H711   1.084       .  S
C701        C702   1.418       .  A
C701        C706   1.398       .  A
C702        C703   1.420       .  A
C703        C704   1.407       .  A
C703        H712   1.078       .  S
C704        C705   1.402       .  A
C704        H713   1.083       .  S
C705        C706   1.407       .  A
C706        H714   1.084       .  S
C715        C716   1.404       .  A
C715        C720   1.401       .  A
C716        C717   1.403   1_545  A
C716        H729   1.083       .  S
C717        C718   1.417       .  A
C717        H730   1.078   1_655  S
C718        C724   1.432       .  A
C718        C719   1.421       .  A
C719        C721   1.399       .  A
C719        C720   1.400   1_565  A
C720        H731   1.084       .  S
C721        C722   1.387       .  A
C721        H732   1.084       .  S
C722        C723   1.397       .  A
C722        H733   1.084       .  S
C723        C724   1.424       .  A
C723        C728   1.403       .  A
C724        C725   1.414   1_655  A
C725        C726   1.399       .  A
C725        H734   1.078       .  S
C726        C727   1.403   1_455  A
C726        H735   1.082       .  S
C727        C728   1.397       .  A
C728        H736   1.085       .  S
C737        C738   1.395       .  A
C737        C742   1.402       .  A
C738        C739   1.396       .  A
C738        H751   1.083       .  S
C739        C740   1.416       .  A
C739        H752   1.077       .  S
C740        C746   1.428       .  A
C740        C741   1.422       .  A
C741        C743   1.400       .  A
C741        C742   1.404       .  A
C742        H753   1.085       .  S
C743        C744   1.391       .  A
C743        H754   1.084       .  S
C744        C745   1.400       .  A
C744        H755   1.084       .  S
C745        C746   1.424       .  A
C745        C750   1.408       .  A
C746        C747   1.413       .  A
C747        C748   1.394       .  A
C747        H756   1.077       .  S
C748        C749   1.399       .  A
C748        H757   1.084       .  S
C749        C750   1.401       .  A
C750        H758   1.084       .  S
C759        C760   1.401       .  A
C759        C764   1.403       .  A
C760        C761   1.395       .  A
C760        H773   1.083       .  S
C761        C762   1.413       .  A
C761        H774   1.077       .  S
C762        C768   1.431       .  A
C762        C763   1.424       .  A
C763        C765   1.400       .  A
C763        C764   1.410       .  A
C764        H775   1.084       .  S
C765        C766   1.392       .  A
C765        H776   1.084       .  S
C766        C767   1.401       .  A
C766        H777   1.084       .  S
C767        C768   1.421       .  A
C767        C772   1.406       .  A
C768        C769   1.417       .  A
C769        C770   1.398       .  A
C769        H778   1.077       .  S
C770        C771   1.398       .  A
C770        H779   1.083       .  S
C771        C772   1.404       .  A
C772        H780   1.083       .  S
C781        C782   1.401       .  A
C781        C786   1.400       .  A
C782        C783   1.398       .  A
C782        H795   1.083       .  S
C783        C784   1.416       .  A
C783        H796   1.078   1_455  S
C784        C790   1.428       .  A
C784        C785   1.422       .  A
C785        C787   1.399       .  A
C785        C786   1.402       .  A
C786        H797   1.085       .  S
C787        C788   1.388       .  A
C787        H798   1.084       .  S
C788        C789   1.398       .  A
C788        H799   1.084       .  S
C789        C790   1.424       .  A
C789        C794   1.403       .  A
C790        C791   1.415       .  A
C791        C792   1.396   1_455  A
C791        H800   1.077   1_455  S
C792        C793   1.400   1_655  A
C792        H801   1.084       .  S
C793        C794   1.396       .  A
C794        H802   1.085       .  S
C803        C804   1.398       .  A
C803        C808   1.398       .  A
C804        C805   1.391       .  A
C804        H817   1.084       .  S
C805        C806   1.412       .  A
C805        H818   1.077       .  S
C806        C812   1.428       .  A
C806        C807   1.425       .  A
C807        C809   1.399       .  A
C807        C808   1.409       .  A
C808        H819   1.085       .  S
C809        C810   1.391       .  A
C809        H820   1.084       .  S
C810        C811   1.400       .  A
C810        H821   1.084       .  S
C811        C812   1.420       .  A
C811        C816   1.403       .  A
C812        C813   1.418       .  A
C813        C814   1.397       .  A
C813        H822   1.077       .  S
C814        C815   1.395       .  A
C814        H823   1.083       .  S
C815        C816   1.404       .  A
C816        H824   1.084       .  S
C825        C826   1.402       .  A
C825        C830   1.399       .  A
C826        C827   1.394       .  A
C826        H839   1.084       .  S
C827        C828   1.412       .  A
C827        H840   1.078       .  S
C828        C834   1.426       .  A
C828        C829   1.423       .  A
C829        C831   1.398       .  A
C829        C830   1.403       .  A
C830        H841   1.085       .  S
C831        C832   1.388       .  A
C831        H842   1.084       .  S
C832        C833   1.399       .  A
C832        H843   1.084       .  S
C833        C834   1.422       .  A
C833        C838   1.401       .  A
C834        C835   1.417       .  A
C835        C836   1.397       .  A
C835        H844   1.077       .  S
C836        C837   1.396       .  A
C836        H845   1.083       .  S
C837        C838   1.401       .  A
C838        H846   1.085       .  S
C847        C848   1.402       .  A
C847        C852   1.407       .  A
C848        C849   1.389       .  A
C848        H861   1.083       .  S
C849        C850   1.409       .  A
C849        H862   1.076       .  S
C850        C856   1.429       .  A
C850        C851   1.424       .  A
C851        C853   1.402       .  A
C851        C852   1.415       .  A
C852        H863   1.084       .  S
C853        C854   1.395       .  A
C853        H864   1.084       .  S
C854        C855   1.402       .  A
C854        H865   1.084       .  S
C855        C856   1.420       .  A
C855        C860   1.407       .  A
C856        C857   1.418       .  A
C857        C858   1.396       .  A
C857        H866   1.077       .  S
C858        C859   1.395       .  A
C858        H867   1.083       .  S
C859        C860   1.406       .  A
C860        H868   1.084       .  S
C869        C870   1.401       .  A
C869        C874   1.403       .  A
C870        C871   1.407       .  A
C870        H883   1.083       .  S
C871        C872   1.418       .  A
C871        H884   1.079       .  S
C872        C878   1.437       .  A
C872        C873   1.422       .  A
C873        C875   1.400       .  A
C873        C874   1.407       .  A
C874        H885   1.085   1_565  S
C875        C876   1.390       .  A
C875        H886   1.084       .  S
C876        C877   1.399       .  A
C876        H887   1.084       .  S
C877        C878   1.423       .  A
C877        C882   1.406       .  A
C878        C879   1.417       .  A
C879        C880   1.405       .  A
C879        H888   1.079       .  S
C880        C881   1.402       .  A
C880        H889   1.083       .  S
C881        C882   1.401       .  A
C882        H890   1.085       .  S
C891        C892   1.397       .  A
C891        C896   1.397       .  A
C892        C893   1.392       .  A
C892        H905   1.084       .  S
C893        C894   1.413       .  A
C893        H906   1.077       .  S
C894        C900   1.427       .  A
C894        C895   1.425       .  A
C895        C897   1.399       .  A
C895        C896   1.406       .  A
C896        H907   1.085       .  S
C897        C898   1.389       .  A
C897        H908   1.084       .  S
C898        C899   1.399       .  A
C898        H909   1.084       .  S
C899        C900   1.421       .  A
C899        C904   1.401       .  A
C900        C901   1.417       .  A
C901        C902   1.395       .  A
C901        H910   1.077       .  S
C902        C903   1.395       .  A
C902        H911   1.083       .  S
C903        C904   1.401       .  A
C904        H912   1.084       .  S
C913        C914   1.395       .  A
C913        C918   1.399       .  A
C914        C915   1.397       .  A
C914        H927   1.083       .  S
C915        C916   1.418       .  A
C915        H928   1.077       .  S
C916        C922   1.428       .  A
C916        C917   1.421       .  A
C917        C919   1.399       .  A
C917        C918   1.401       .  A
C918        H929   1.085       .  S
C919        C920   1.389       .  A
C919        H930   1.084       .  S
C920        C921   1.398       .  A
C920        H931   1.084       .  S
C921        C922   1.425       .  A
C921        C926   1.405       .  A
C922        C923   1.413       .  A
C923        C924   1.393   1_565  A
C923        H932   1.077       .  S
C924        C925   1.397       .  A
C924        H933   1.084       .  S
C925        C926   1.396   1_545  A
C926        H934   1.085       .  S
C935        C936   1.403       .  A
C935        C940   1.405       .  A
C936        C937   1.403   1_556  A
C936        H949   1.083   1_556  S
C937        C938   1.417   1_554  A
C937        H950   1.078       .  S
C938        C944   1.433   1_556  A
C938        C939   1.421       .  A
C939        C941   1.400       .  A
C939        C940   1.403       .  A
C940        H951   1.084       .  S
C941        C942   1.388       .  A
C941        H952   1.084       .  S
C942        C943   1.398       .  A
C942        H953   1.084       .  S
C943        C944   1.423   1_556  A
C943        C948   1.403   1_556  A
C944        C945   1.416       .  A
C945        C946   1.401       .  A
C945        H954   1.078       .  S
C946        C947   1.404       .  A
C946        H955   1.083       .  S
C947        C948   1.397       .  A
C948        H956   1.085   1_554  S
C957        C958   1.405       .  A
C957        C962   1.405       .  A
C958        C959   1.395       .  A
C958        H971   1.083       .  S
C959        C960   1.410       .  A
C959        H972   1.077       .  S
C960        C966   1.435       .  A
C960        C961   1.426       .  A
C961        C963   1.400       .  A
C961        C962   1.416       .  A
C962        H973   1.084       .  S
C963        C964   1.394       .  A
C963        H974   1.084       .  S
C964        C965   1.402       .  A
C964        H975   1.084       .  S
C965        C966   1.420       .  A
C965        C970   1.409       .  A
C966        C967   1.420       .  A
C967        C968   1.403       .  A
C967        H976   1.077       .  S
C968        C969   1.398       .  A
C968        H977   1.083       .  S
C969        C970   1.407       .  A
C970        H978   1.084       .  S
C979        C980   1.400       .  A
C979        C984   1.402       .  A
C980        C981   1.387       .  A
C980        H993   1.084       .  S
C981        C982   1.410       .  A
C981        H994   1.076       .  S
C982        C988   1.426       .  A
C982        C983   1.424       .  A
C983        C985   1.400       .  A
C983        C984   1.410       .  A
C984        H995   1.084       .  S
C985        C986   1.393       .  A
C985        H996   1.084       .  S
C986        C987   1.401       .  A
C986        H997   1.084       .  S
C987        C988   1.421       .  A
C987        C992   1.405       .  A
C988        C989   1.416       .  A
C989        C990   1.391       .  A
C989        H998   1.076       .  S
C990        C991   1.394       .  A
C990        H999   1.084       .  S
C991        C992   1.402       .  A
C992       H1000   1.084       .  S
C1001      C1002   1.402       .  A
C1001      C1006   1.402       .  A
C1002      C1003   1.404       .  A
C1002      H1015   1.083       .  S
C1003      C1004   1.418       .  A
C1003      H1016   1.078       .  S
C1004      C1010   1.430       .  A
C1004      C1005   1.420       .  A
C1005      C1007   1.398       .  A
C1005      C1006   1.396       .  A
C1006      H1017   1.085       .  S
C1007      C1008   1.384       .  A
C1007      H1018   1.084       .  S
C1008      C1009   1.396       .  A
C1008      H1019   1.084       .  S
C1009      C1010   1.424       .  A
C1009      C1014   1.399       .  A
C1010      C1011   1.415       .  A
C1011      C1012   1.400       .  A
C1011      H1020   1.078       .  S
C1012      C1013   1.403       .  A
C1012      H1021   1.083       .  S
C1013      C1014   1.394       .  A
C1014      H1022   1.085       .  S
C1023      C1024   1.398       .  A
C1023      C1028   1.400       .  A
C1024      C1025   1.404       .  A
C1024      H1037   1.083       .  S
C1025      C1026   1.419       .  A
C1025      H1038   1.077       .  S
C1026      C1032   1.433       .  A
C1026      C1027   1.422       .  A
C1027      C1029   1.399       .  A
C1027      C1028   1.400       .  A
C1028      H1039   1.085       .  S
C1029      C1030   1.386       .  A
C1029      H1040   1.084       .  S
C1030      C1031   1.397       .  A
C1030      H1041   1.084       .  S
C1031      C1032   1.424       .  A
C1031      C1036   1.400       .  A
C1032      C1033   1.417       .  A
C1033      C1034   1.402       .  A
C1033      H1042   1.077       .  S
C1034      C1035   1.399       .  A
C1034      H1043   1.083       .  S
C1035      C1036   1.397       .  A
C1036      H1044   1.085       .  S
C1045      C1046   1.400       .  A
C1045      C1050   1.401       .  A
C1046      C1047   1.401       .  A
C1046      H1059   1.083       .  S
C1047      C1048   1.418       .  A
C1047      H1060   1.078       .  S
C1048      C1054   1.426       .  A
C1048      C1049   1.419       .  A
C1049      C1051   1.399       .  A
C1049      C1050   1.394       .  A
C1050      H1061   1.085       .  S
C1051      C1052   1.385       .  A
C1051      H1062   1.084       .  S
C1052      C1053   1.397       .  A
C1052      H1063   1.084       .  S
C1053      C1054   1.424       .  A
C1053      C1058   1.400       .  A
C1054      C1055   1.413       .  A
C1055      C1056   1.396       .  A
C1055      H1064   1.079       .  S
C1056      C1057   1.401       .  A
C1056      H1065   1.083       .  S
C1057      C1058   1.394       .  A
C1058      H1066   1.085       .  S
C1067      C1068   1.401       .  A
C1067      C1072   1.404       .  A
C1068      C1069   1.392       .  A
C1068      H1081   1.083       .  S
C1069      C1070   1.412       .  A
C1069      H1082   1.077       .  S
C1070      C1076   1.428       .  A
C1070      C1071   1.423       .  A
C1071      C1073   1.400   1_556  A
C1071      C1072   1.410       .  A
C1072      H1083   1.084   1_556  S
C1073      C1074   1.393       .  A
C1073      H1084   1.084       .  S
C1074      C1075   1.401       .  A
C1074      H1085   1.084       .  S
C1075      C1076   1.422   1_554  A
C1075      C1080   1.406       .  A
C1076      C1077   1.416       .  A
C1077      C1078   1.396       .  A
C1077      H1086   1.077       .  S
C1078      C1079   1.396   1_556  A
C1078      H1087   1.083       .  S
C1079      C1080   1.404       .  A
C1080      H1088   1.084       .  S
C1089      C1090   1.403       .  A
C1089      C1094   1.403       .  A
C1090      C1091   1.404       .  A
C1090      H1103   1.083       .  S
C1091      C1092   1.418       .  A
C1091      H1104   1.078       .  S
C1092      C1098   1.432       .  A
C1092      C1093   1.420       .  A
C1093      C1095   1.399       .  A
C1093      C1094   1.400       .  A
C1094      H1105   1.084       .  S
C1095      C1096   1.387       .  A
C1095      H1106   1.084   1_545  S
C1096      C1097   1.397       .  A
C1096      H1107   1.084       .  S
C1097      C1098   1.424       .  A
C1097      C1102   1.404       .  A
C1098      C1099   1.414       .  A
C1099      C1100   1.399       .  A
C1099      H1108   1.078       .  S
C1100      C1101   1.403       .  A
C1100      H1109   1.083       .  S
C1101      C1102   1.396       .  A
C1102      H1110   1.085       .  S
C1111      C1112   1.395       .  A
C1111      C1116   1.404       .  A
C1112      C1113   1.397       .  A
C1112      H1125   1.083       .  S
C1113      C1114   1.417       .  A
C1113      H1126   1.077       .  S
C1114      C1120   1.429       .  A
C1114      C1115   1.422       .  A
C1115      C1117   1.401       .  A
C1115      C1116   1.406       .  A
C1116      H1127   1.085       .  S
C1117      C1118   1.392       .  A
C1117      H1128   1.084       .  S
C1118      C1119   1.400       .  A
C1118      H1129   1.084       .  S
C1119      C1120   1.424       .  A
C1119      C1124   1.409       .  A
C1120      C1121   1.413       .  A
C1121      C1122   1.393       .  A
C1121      H1130   1.077       .  S
C1122      C1123   1.400       .  A
C1122      H1131   1.084       .  S
C1123      C1124   1.400       .  A
C1124      H1132   1.085       .  S
C1133      C1134   1.401       .  A
C1133      C1138   1.403       .  A
C1134      C1135   1.400   1_545  A
C1134      H1147   1.083       .  S
C1135      C1136   1.417       .  A
C1135      H1148   1.078       .  S
C1136      C1142   1.430       .  A
C1136      C1137   1.421       .  A
C1137      C1139   1.399       .  A
C1137      C1138   1.398   1_565  A
C1138      H1149   1.084       .  S
C1139      C1140   1.385       .  A
C1139      H1150   1.084       .  S
C1140      C1141   1.397       .  A
C1140      H1151   1.084       .  S
C1141      C1142   1.424       .  A
C1141      C1146   1.400       .  A
C1142      C1143   1.415       .  A
C1143      C1144   1.399       .  A
C1143      H1152   1.078       .  S
C1144      C1145   1.402       .  A
C1144      H1153   1.083   1_554  S
C1145      C1146   1.394       .  A
C1146      H1154   1.085       .  S
C1155      C1156   1.402       .  A
C1155      C1160   1.404       .  A
C1156      C1157   1.388       .  A
C1156      H1169   1.083       .  S
C1157      C1158   1.410       .  A
C1157      H1170   1.076       .  S
C1158      C1164   1.427   1_455  A
C1158      C1159   1.423   1_455  A
C1159      C1161   1.400       .  A
C1159      C1160   1.410   1_655  A
C1160      H1171   1.084   1_455  S
C1161      C1162   1.392       .  A
C1161      H1172   1.084       .  S
C1162      C1163   1.401       .  A
C1162      H1173   1.084       .  S
C1163      C1164   1.421       .  A
C1163      C1168   1.405       .  A
C1164      C1165   1.416   1_655  A
C1165      C1166   1.393       .  A
C1165      H1174   1.076       .  S
C1166      C1167   1.395   1_455  A
C1166      H1175   1.084       .  S
C1167      C1168   1.403       .  A
C1168      H1176   1.084       .  S
C1177      C1178   1.397       .  A
C1177      C1182   1.402       .  A
C1178      C1179   1.398       .  A
C1178      H1191   1.083       .  S
C1179      C1180   1.417       .  A
C1179      H1192   1.078       .  S
C1180      C1186   1.429       .  A
C1180      C1181   1.421       .  A
C1181      C1183   1.399       .  A
C1181      C1182   1.403       .  A
C1182      H1193   1.085       .  S
C1183      C1184   1.390       .  A
C1183      H1194   1.084       .  S
C1184      C1185   1.399       .  A
C1184      H1195   1.084       .  S
C1185      C1186   1.425       .  A
C1185      C1190   1.409       .  A
C1186      C1187   1.412       .  A
C1187      C1188   1.394       .  A
C1187      H1196   1.077       .  S
C1188      C1189   1.402       .  A
C1188      H1197   1.084       .  S
C1189      C1190   1.401       .  A
C1190      H1198   1.084       .  S
C1199      C1200   1.400       .  A
C1199      C1204   1.401       .  A
C1200      C1201   1.402   1_556  A
C1200      H1213   1.083   1_556  S
C1201      C1202   1.418   1_554  A
C1201      H1214   1.078       .  S
C1202      C1208   1.431   1_556  A
C1202      C1203   1.421       .  A
C1203      C1205   1.399       .  A
C1203      C1204   1.400       .  A
C1204      H1215   1.085       .  S
C1205      C1206   1.387       .  A
C1205      H1216   1.084       .  S
C1206      C1207   1.397       .  A
C1206      H1217   1.084       .  S
C1207      C1208   1.424   1_556  A
C1207      C1212   1.402       .  A
C1208      C1209   1.415       .  A
C1209      C1210   1.399       .  A
C1209      H1218   1.078       .  S
C1210      C1211   1.402       .  A
C1210      H1219   1.083       .  S
C1211      C1212   1.395   1_554  A
C1212      H1220   1.085       .  S
C1221      C1222   1.397       .  A
C1221      C1226   1.397   1_455  A
C1222      C1223   1.398       .  A
C1222      H1235   1.083       .  S
C1223      C1224   1.415       .  A
C1223      H1236   1.078       .  S
C1224      C1230   1.426       .  A
C1224      C1225   1.422       .  A
C1225      C1227   1.398       .  A
C1225      C1226   1.400   1_455  A
C1226      H1237   1.085       .  S
C1227      C1228   1.389       .  A
C1227      H1238   1.084   1_455  S
C1228      C1229   1.399       .  A
C1228      H1239   1.084       .  S
C1229      C1230   1.422       .  A
C1229      C1234   1.401       .  A
C1230      C1231   1.415       .  A
C1231      C1232   1.398       .  A
C1231      H1240   1.078       .  S
C1232      C1233   1.397       .  A
C1232      H1241   1.083       .  S
C1233      C1234   1.399       .  A
C1234      H1242   1.085       .  S
C1243      C1244   1.401       .  A
C1243      C1248   1.402       .  A
C1244      C1245   1.386       .  A
C1244      H1257   1.084       .  S
C1245      C1246   1.409       .  A
C1245      H1258   1.077       .  S
C1246      C1252   1.424       .  A
C1246      C1247   1.424       .  A
C1247      C1249   1.400       .  A
C1247      C1248   1.410       .  A
C1248      H1259   1.084       .  S
C1249      C1250   1.393       .  A
C1249      H1260   1.084   1_556  S
C1250      C1251   1.401       .  A
C1250      H1261   1.084   1_556  S
C1251      C1252   1.420       .  A
C1251      C1256   1.404       .  A
C1252      C1253   1.416       .  A
C1253      C1254   1.392       .  A
C1253      H1262   1.077       .  S
C1254      C1255   1.394       .  A
C1254      H1263   1.084       .  S
C1255      C1256   1.404       .  A
C1256      H1264   1.085   1_556  S
C1265      C1266   1.406       .  A
C1265      C1270   1.400       .  A
C1266      C1267   1.396       .  A
C1266      H1279   1.084       .  S
C1267      C1268   1.412       .  A
C1267      H1280   1.077       .  S
C1268      C1274   1.434       .  A
C1268      C1269   1.425       .  A
C1269      C1271   1.399       .  A
C1269      C1270   1.412       .  A
C1270      H1281   1.084       .  S
C1271      C1272   1.391       .  A
C1271      H1282   1.084       .  S
C1272      C1273   1.400       .  A
C1272      H1283   1.084       .  S
C1273      C1274   1.421       .  A
C1273      C1278   1.406       .  A
C1274      C1275   1.419       .  A
C1275      C1276   1.401       .  A
C1275      H1284   1.077       .  S
C1276      C1277   1.397       .  A
C1276      H1285   1.083       .  S
C1277      C1278   1.402       .  A
C1278      H1286   1.084       .  S
C1287      C1288   1.402       .  A
C1287      C1292   1.403       .  A
C1288      C1289   1.392       .  A
C1288      H1301   1.083       .  S
C1289      C1290   1.411       .  A
C1289      H1302   1.077       .  S
C1290      C1296   1.428       .  A
C1290      C1291   1.423       .  A
C1291      C1293   1.400       .  A
C1291      C1292   1.408       .  A
C1292      H1303   1.084       .  S
C1293      C1294   1.392       .  A
C1293      H1304   1.084       .  S
C1294      C1295   1.401       .  A
C1294      H1305   1.084       .  S
C1295      C1296   1.421       .  A
C1295      C1300   1.406       .  A
C1296      C1297   1.416       .  A
C1297      C1298   1.395       .  A
C1297      H1306   1.077       .  S
C1298      C1299   1.396       .  A
C1298      H1307   1.083       .  S
C1299      C1300   1.405       .  A
C1300      H1308   1.084       .  S
C1309      C1310   1.396       .  A
C1309      C1314   1.398       .  A
C1310      C1311   1.392       .  A
C1310      H1323   1.084       .  S
C1311      C1312   1.413       .  A
C1311      H1324   1.076       .  S
C1312      C1318   1.428       .  A
C1312      C1313   1.425       .  A
C1313      C1315   1.399       .  A
C1313      C1314   1.408       .  A
C1314      H1325   1.085       .  S
C1315      C1316   1.391       .  A
C1315      H1326   1.084       .  S
C1316      C1317   1.401       .  A
C1316      H1327   1.084       .  S
C1317      C1318   1.420       .  A
C1317      C1322   1.403       .  A
C1318      C1319   1.418       .  A
C1319      C1320   1.397       .  A
C1319      H1328   1.076       .  S
C1320      C1321   1.395       .  A
C1320      H1329   1.083       .  S
C1321      C1322   1.403       .  A
C1322      H1330   1.084       .  S
C1331      C1332   1.393   1_655  A
C1331      C1336   1.405       .  A
C1332      C1333   1.392       .  A
C1332      H1345   1.084       .  S
C1333      C1334   1.416       .  A
C1333      H1346   1.076       .  S
C1334      C1340   1.427       .  A
C1334      C1335   1.421   1_455  A
C1335      C1337   1.402       .  A
C1335      C1336   1.407       .  A
C1336      H1347   1.084       .  S
C1337      C1338   1.394       .  A
C1337      H1348   1.084       .  S
C1338      C1339   1.401   1_655  A
C1338      H1349   1.084       .  S
C1339      C1340   1.424       .  A
C1339      C1344   1.412       .  A
C1340      C1341   1.411       .  A
C1341      C1342   1.388       .  A
C1341      H1350   1.076       .  S
C1342      C1343   1.400       .  A
C1342      H1351   1.084       .  S
C1343      C1344   1.404       .  A
C1344      H1352   1.084       .  S
C1353      C1354   1.405       .  A
C1353      C1358   1.396       .  A
C1354      C1355   1.399       .  A
C1354      H1367   1.083       .  S
C1355      C1356   1.413       .  A
C1355      H1368   1.079       .  S
C1356      C1362   1.430       .  A
C1356      C1357   1.423       .  A
C1357      C1359   1.397       .  A
C1357      C1358   1.403       .  A
C1358      H1369   1.084       .  S
C1359      C1360   1.387       .  A
C1359      H1370   1.084       .  S
C1360      C1361   1.399       .  A
C1360      H1371   1.084       .  S
C1361      C1362   1.420       .  A
C1361      C1366   1.399       .  A
C1362      C1363   1.417       .  A
C1363      C1364   1.403       .  A
C1363      H1372   1.078       .  S
C1364      C1365   1.402       .  A
C1364      H1373   1.083       .  S
C1365      C1366   1.403       .  A
C1366      H1374   1.084       .  S
C1375      C1376   1.400       .  A
C1375      C1380   1.402       .  A
C1376      C1377   1.390       .  A
C1376      H1389   1.084       .  S
C1377      C1378   1.411       .  A
C1377      H1390   1.077       .  S
C1378      C1384   1.428       .  A
C1378      C1379   1.425       .  A
C1379      C1381   1.401       .  A
C1379      C1380   1.412       .  A
C1380      H1391   1.084       .  S
C1381      C1382   1.394       .  A
C1381      H1392   1.084       .  S
C1382      C1383   1.402       .  A
C1382      H1393   1.084       .  S
C1383      C1384   1.421       .  A
C1383      C1388   1.408       .  A
C1384      C1385   1.416       .  A
C1385      C1386   1.395       .  A
C1385      H1394   1.077       .  S
C1386      C1387   1.395       .  A
C1386      H1395   1.083       .  S
C1387      C1388   1.407       .  A
C1388      H1396   1.084       .  S
C1397      C1398   1.406       .  A
C1397      C1402   1.406       .  A
C1398      C1399   1.389       .  A
C1398      H1411   1.083       .  S
C1399      C1400   1.407       .  A
C1399      H1412   1.078       .  S
C1400      C1406   1.428       .  A
C1400      C1401   1.423       .  A
C1401      C1403   1.400       .  A
C1401      C1402   1.416       .  A
C1402      H1413   1.084       .  S
C1403      C1404   1.396   1_554  A
C1403      H1414   1.083   1_554  S
C1404      C1405   1.403   1_556  A
C1404      H1415   1.084       .  S
C1405      C1406   1.419       .  A
C1405      C1410   1.408       .  A
C1406      C1407   1.416       .  A
C1407      C1408   1.397       .  A
C1407      H1416   1.078       .  S
C1408      C1409   1.397       .  A
C1408      H1417   1.083       .  S
C1409      C1410   1.408       .  A
C1410      H1418   1.083   1_554  S
C1419      C1420   1.402       .  A
C1419      C1424   1.401       .  A
C1420      C1421   1.404       .  A
C1420      H1433   1.083       .  S
C1421      C1422   1.418       .  A
C1421      H1434   1.078       .  S
C1422      C1428   1.432       .  A
C1422      C1423   1.420       .  A
C1423      C1425   1.398       .  A
C1423      C1424   1.398       .  A
C1424      H1435   1.084       .  S
C1425      C1426   1.385       .  A
C1425      H1436   1.084       .  S
C1426      C1427   1.396       .  A
C1426      H1437   1.084       .  S
C1427      C1428   1.425       .  A
C1427      C1432   1.402       .  A
C1428      C1429   1.415       .  A
C1429      C1430   1.400   1_655  A
C1429      H1438   1.078   1_655  S
C1430      C1431   1.401   1_455  A
C1430      H1439   1.083       .  S
C1431      C1432   1.394       .  A
C1432      H1440   1.085       .  S
C1441      C1442   1.400       .  A
C1441      C1446   1.399       .  A
C1442      C1443   1.399       .  A
C1442      H1455   1.083       .  S
C1443      C1444   1.416       .  A
C1443      H1456   1.078   1_556  S
C1444      C1450   1.428       .  A
C1444      C1445   1.421       .  A
C1445      C1447   1.398       .  A
C1445      C1446   1.399       .  A
C1446      H1457   1.085       .  S
C1447      C1448   1.387       .  A
C1447      H1458   1.084       .  S
C1448      C1449   1.398       .  A
C1448      H1459   1.084       .  S
C1449      C1450   1.425       .  A
C1449      C1454   1.401       .  A
C1450      C1451   1.415   1_556  A
C1451      C1452   1.396       .  A
C1451      H1460   1.077       .  S
C1452      C1453   1.399       .  A
C1452      H1461   1.083       .  S
C1453      C1454   1.395   1_554  A
C1454      H1462   1.085       .  S
C1463      C1464   1.400       .  A
C1463      C1468   1.402       .  A
C1464      C1465   1.393       .  A
C1464      H1477   1.084       .  S
C1465      C1466   1.412       .  A
C1465      H1478   1.077       .  S
C1466      C1472   1.431       .  A
C1466      C1467   1.425       .  A
C1467      C1469   1.400   1_556  A
C1467      C1468   1.410       .  A
C1468      H1479   1.084       .  S
C1469      C1470   1.392       .  A
C1469      H1480   1.084       .  S
C1470      C1471   1.401   1_554  A
C1470      H1481   1.084       .  S
C1471      C1472   1.420       .  A
C1471      C1476   1.405   1_556  A
C1472      C1473   1.418       .  A
C1473      C1474   1.398       .  A
C1473      H1482   1.077       .  S
C1474      C1475   1.396       .  A
C1474      H1483   1.083       .  S
C1475      C1476   1.406   1_556  A
C1476      H1484   1.084       .  S
C1485      C1486   1.394       .  A
C1485      C1490   1.404   1_455  A
C1486      C1487   1.391       .  A
C1486      H1499   1.084       .  S
C1487      C1488   1.416       .  A
C1487      H1500   1.076       .  S
C1488      C1494   1.425       .  A
C1488      C1489   1.421   1_455  A
C1489      C1491   1.401       .  A
C1489      C1490   1.405       .  A
C1490      H1501   1.084       .  S
C1491      C1492   1.394       .  A
C1491      H1502   1.084       .  S
C1492      C1493   1.401   1_655  A
C1492      H1503   1.084       .  S
C1493      C1494   1.423       .  A
C1493      C1498   1.411       .  A
C1494      C1495   1.410       .  A
C1495      C1496   1.388       .  A
C1495      H1504   1.077       .  S
C1496      C1497   1.398       .  A
C1496      H1505   1.084       .  S
C1497      C1498   1.404       .  A
C1498      H1506   1.084   1_455  S
