geometry optimzed in LAMMPS
_audit_creation_date              2020-11-30 
_audit_creation_method            'lammps2cif' 
_symmetry_space_group_name_H-M    'P1' 
_symmetry_Int_Tables_number       1 
_symmetry_cell_setting            triclinic 
loop_ 
_symmetry_equiv_pos_as_xyz 
  x,y,z 
_cell_length_a                    46.12108028382872 
_cell_length_b                    46.25935046180481 
_cell_length_c                    48.45469495294754 
_cell_angle_alpha                 90.76513406936452 
_cell_angle_beta                  89.76704627235384 
_cell_angle_gamma                 120.35633023408339 
loop_ 
_atom_site_label 
_atom_site_type_symbol 
_atom_site_fract_x 
_atom_site_fract_y 
_atom_site_fract_z 
_atom_site_charge 
In1        In  0.05752448  0.39276712  0.56440228     1.36870
C2          C  0.04392526  0.32980856  0.55802412     0.77670
O3          O  0.06883480  0.39312095  0.61007887    -0.60780
O4          O  0.02097890  0.38422762  0.59777818    -0.51690
C5          C  0.10798916  0.44929119  0.54228042     0.70330
O6          O  0.10061360  0.42048199  0.53374408    -0.46550
C7          C  0.50998267  0.39515042  0.53749504     0.75040
O8          O  0.06994122  0.35154519  0.57088371    -0.58410
O9          O  0.51947724  0.40807571  0.56119735    -0.48500
O10         O  0.02771213  0.34150371  0.54668930    -0.54840
C11         C  0.03956788  0.38606519  0.61743705     0.85220
O12         O  0.09336032  0.44867425  0.56445917    -0.56730
O13         O  0.02584602  0.38191678  0.52735910    -0.60020
In14       In  0.35224372  0.39084503  0.45118422     1.36870
C15         C  0.30206912  0.32780014  0.45679676     0.77670
O16         O  0.33681188  0.38184764  0.40615706    -0.60780
O17         O  0.38831100  0.40292614  0.41645445    -0.51690
C18         C  0.35737001  0.44628500  0.47472123     0.70330
O19         O  0.33587762  0.41707138  0.48192774    -0.46550
C20         C  0.39977668  0.38925945  0.47908766     0.75040
O21         O  0.29788709  0.34967088  0.44493426    -0.58410
O22         O  0.39712794  0.38540938  0.45328578    -0.48500
O23         O  0.33074120  0.33902619  0.46713591    -0.54840
C24         C  0.36616260  0.39058033  0.39784018     0.85220
O25         O  0.37197751  0.44707226  0.45245445    -0.56730
O26         O  0.37777861  0.39363186  0.49066884    -0.60020
In27       In  0.39801664  0.34964396  0.23446788     1.36870
C28         C  0.33405725  0.30158409  0.22817071     0.77670
O29         O  0.38984565  0.33189953  0.27892362    -0.60780
O30         O  0.40326706  0.38209507  0.27072694    -0.51690
C31         C  0.45233237  0.35498646  0.20884063     0.70330
O32         O  0.42300132  0.33245323  0.20232913    -0.46550
C33         C  0.39897025  0.39928873  0.20888403     0.75040
O34         O  0.35600882  0.29550005  0.23769793    -0.58410
O35         O  0.41376227  0.40322095  0.23159778    -0.48500
O36         O  0.34554042  0.33142435  0.22096531    -0.54840
C37         C  0.39427424  0.35950341  0.28832414     0.85220
O38         O  0.45383328  0.37004562  0.23102831    -0.56730
O39         O  0.38375446  0.36980386  0.19919765    -0.60020
In40       In  0.35698820  0.46361772  0.90089229     1.36870
C41         C  0.31122521  0.48261620  0.89837767     0.77670
O42         O  0.34067109  0.45067166  0.94518932    -0.60780
O43         O  0.39257628  0.48142991  0.93634271    -0.51690
C44         C  0.36602018  0.41741149  0.87414483     0.70330
O45         O  0.33756981  0.40969314  0.88419823    -0.46550
C46         C  0.39620202  0.01437266  0.87036956     0.75040
O47         O  0.30508088  0.45436198  0.88878765    -0.58410
O48         O  0.40296618  0.01184794  0.89509330    -0.48500
O49         O  0.33943299  0.99923840  0.90984143    -0.54840
C50         C  0.36993376  0.47044276  0.95437858     0.85220
O51         O  0.38892517  0.44656981  0.88021064    -0.56730
O52         O  0.36890012  0.49048420  0.86108760    -0.60020
In53       In  0.39828872  0.04640244  0.11524563     1.36870
C54         C  0.45416386  0.09887424  0.13662860     0.77670
O55         O  0.39167846  0.02484781  0.15706944    -0.60780
O56         O  0.40400658  0.50283800  0.12332672    -0.51690
C57         C  0.33321431  0.02570136  0.11829310     0.70330
O58         O  0.35524615  0.05667190  0.11917691    -0.46550
C59         C  0.39885695  0.03470563  0.06187085     0.75040
O60         O  0.42505286  0.09207031  0.14376632    -0.58410
O61         O  0.41195933  0.02511896  0.07961775    -0.48500
O62         O  0.45421828  0.08234969  0.11576232    -0.54840
C63         C  0.39752871  0.50249599  0.14858255     0.85220
O64         O  0.34476825  0.00634295  0.11582047    -0.56730
O65         O  0.38954400  0.05455639  0.07096293    -0.60020
In66       In  0.05524037  0.16452525  0.78450239     1.36870
C67         C  0.04689075  0.21712778  0.79034741     0.77670
O68         O  0.06689271  0.16971514  0.73836971    -0.60780
O69         O  0.01681811  0.13901883  0.75206806    -0.51690
C70         C  0.10146552  0.15280313  0.80745284     0.70330
O71         O  0.10522334  0.18181873  0.80749908    -0.46550
C72         C  0.50297504  0.12041074  0.81172459     0.75040
O73         O  0.06691432  0.21665871  0.77263236    -0.58410
O74         O  0.50999433  0.11464542  0.78783519    -0.48500
O75         O  0.03581566  0.19344197  0.80711865    -0.54840
C76         C  0.03614527  0.15125480  0.73186133     0.85220
O77         O  0.07753571  0.13207699  0.79257932    -0.56730
O78         O  0.02370672  0.14870767  0.82192715    -0.60020
In79       In  0.47232393  0.12225339  0.56674205     1.36870
C80         C  0.49086269  0.18677678  0.56471359     0.77670
O81         O  0.46101296  0.12619707  0.61162941    -0.60780
O82         O  0.99732938  0.11246310  0.60110297    -0.51690
C83         C  0.42118082  0.06716353  0.54291133     0.70330
O84         O  0.42950363  0.09651199  0.53593455    -0.46550
C85         C  0.01842064  0.12368412  0.53487332     0.75040
O86         O  0.46009244  0.16423464  0.56569085    -0.58410
O87         O  0.01790669  0.11894477  0.56039778    -0.48500
O88         O  0.01093610  0.17600539  0.56427123    -0.54840
C89         C  0.48441608  0.12147698  0.61977232     0.85220
O90         O  0.43551103  0.06619413  0.56472644    -0.56730
O91         O  0.99498449  0.12717097  0.52546538    -0.60020
In92       In  0.16726312  0.11870704  0.44374174     1.36870
C93         C  0.21222134  0.18416569  0.44753483     0.78030
O94         O  0.18587014  0.12311662  0.39983296    -0.60780
O95         O  0.13356655  0.09951650  0.40714865    -0.51690
C96         C  0.15975712  0.06545658  0.47207803     0.70330
O97         O  0.18776471  0.08595530  0.46129711    -0.46550
C98         C  0.12331941  0.12701378  0.47089921     0.75040
O99         O  0.21829047  0.16242895  0.45733325    -0.58410
O100        O  0.11790513  0.11444074  0.44691512    -0.48500
O101        O  0.18407585  0.17199488  0.43597626    -0.54840
C102        C  0.15692012  0.11281996  0.38984806     0.85220
O103        O  0.13652915  0.07081541  0.46605287    -0.56730
O104        O  0.15190550  0.13592888  0.48094315    -0.60020
In105      In  0.12570164  0.16202027  0.23276538     1.36870
C106        C  0.19055085  0.20821660  0.23135218     0.77670
O107        O  0.13663222  0.17889632  0.27736107    -0.60780
O108        O  0.10798587  0.12676059  0.26790477    -0.51690
C109        C  0.07555256  0.16113988  0.20376298     0.70330
O110        O  0.10467999  0.17178660  0.19457480    -0.46550
C111        C  0.12558851  0.11185867  0.20732548     0.75040
O112        O  0.16806521  0.21640507  0.23145108    -0.58410
O113        O  0.10863906  0.10801977  0.22879647    -0.48500
O114        O  0.17946493  0.17719959  0.23145274    -0.54840
C115        C  0.12405319  0.14916834  0.28585597     0.85220
O116        O  0.07349275  0.15648790  0.22950269    -0.56730
O117        O  0.14170859  0.14140026  0.19858767    -0.60020
In118      In  0.17409071  0.05084923  0.89892770     1.36870
C119        C  0.22588726  0.04139763  0.89243030     0.77670
O120        O  0.17986316  0.06211395  0.94505796    -0.60780
O121        O  0.15156035  0.01166997  0.93095368    -0.51690
C122        C  0.16570111  0.09930864  0.87704516     0.70330
O123        O  0.18931929  0.09477632  0.86931490    -0.46550
C124        C  0.12315035  0.50273545  0.87269474     0.75040
O125        O  0.22773625  0.06455115  0.90800899    -0.58410
O126        O  0.11951805  0.51546328  0.89462970    -0.48500
O127        O  0.19969111  0.02705491  0.87787496    -0.54840
C128        C  0.16253657  0.03143079  0.95133678     0.85220
O129        O  0.15110351  0.08342613  0.89842056    -0.56730
O130        O  0.15277468  0.01520559  0.86390501    -0.60020
In131      In  0.12713680  0.46116279  0.11510205     1.36870
C132        C  0.18936231  0.47192667  0.12133540     0.77670
O133        O  0.12827371  0.44982486  0.06960244    -0.60780
O134        O  0.12835541  0.49406301  0.08149728    -0.51690
C135        C  0.06733472  0.41456695  0.13480531     0.70330
O136        O  0.09367727  0.41337273  0.13934818    -0.46550
C137        C  0.13087385  0.00814756  0.14745445     0.75040
O138        O  0.16672688  0.44597244  0.10907189    -0.58410
O139        O  0.13297926  0.01088172  0.12156634    -0.48500
O140        O  0.17891998  0.98965754  0.13222241    -0.54840
C141        C  0.13076325  0.47710899  0.06204961     0.85220
O142        O  0.07089598  0.43523901  0.11656744    -0.56730
O143        O  0.12705531  0.48118271  0.15698202    -0.60020
In144      In  0.47116996  0.34918118  0.78206462     1.36870
C145        C  0.48967070  0.30350332  0.78571257     0.77670
O146        O  0.45864005  0.33643510  0.73666056    -0.60780
O147        O  0.00486966  0.37963269  0.74836945    -0.51690
C148        C  0.41987436  0.35398191  0.80321935     0.70330
O149        O  0.42931601  0.33520258  0.81369462    -0.46550
C150        C  0.01396962  0.39688655  0.81433316     0.75040
O151        O  0.45872963  0.29484838  0.78540305    -0.58410
O152        O  0.00370526  0.40296466  0.79232213    -0.48500
O153        O  0.00961030  0.33452411  0.78466302    -0.54840
C154        C  0.48676715  0.36068172  0.72909145     0.85220
O155        O  0.43230105  0.36462484  0.77973835    -0.56730
O156        O  0.00144839  0.36646155  0.82024761    -0.60020
C157        C  0.09493623  0.47502004  0.85864329    -0.00070
C158        C  0.06598733  0.47693147  0.85420692    -0.11940
C159        C  0.03879470  0.45133670  0.83993609     0.02170
C160        C  0.04041510  0.42320056  0.83088244    -0.00160
C161        C  0.06886009  0.42072575  0.83622841    -0.11880
C162        C  0.09642429  0.44670644  0.84974149     0.02050
H163        H  0.06498660  0.49874240  0.86131553     0.15030
H164        H  0.06988601  0.39892270  0.82909076     0.15030
C165        C  0.12554205  0.44345994  0.85467149     0.36680
C166        C  0.00942399  0.45415253  0.83528946     0.36590
N167        N  0.14884997  0.44085384  0.85860198    -0.43660
N168        N  0.98591507  0.45649288  0.83168247    -0.43660
C169        C  0.15520493  0.01856131  0.97994406    -0.00070
C170        C  0.14916293  0.48601083  0.98460786    -0.11940
C171        C  0.14086230  0.47172426  0.01087904     0.02170
C172        C  0.13778244  0.48987440  0.03325930    -0.00160
C173        C  0.14366515  0.02243158  0.02846925    -0.11880
C174        C  0.15246627  0.03686960  0.00225545     0.02050
H175        H  0.15124928  0.47166644  0.96762155     0.15030
H176        H  0.14167706  0.03695422  0.04534510     0.15030
C177        C  0.15739832  0.06999890  0.99869942     0.36680
C178        C  0.13603036  0.43859430  0.01410966     0.36590
N179        N  0.16129298  0.09653109  0.99583692    -0.43660
N180        N  0.13229746  0.41208153  0.01665067    -0.43660
C181        C  0.12755852  0.08451660  0.19372160    -0.00070
C182        C  0.15313143  0.09304176  0.17423188    -0.11940
C183        C  0.15568758  0.06829549  0.15982974     0.02170
C184        C  0.13235326  0.03448548  0.16497186    -0.00160
C185        C  0.10802036  0.02574035  0.18547514    -0.11880
C186        C  0.10514911  0.05048547  0.19975738     0.02050
H187        H  0.17111884  0.11910344  0.17007089     0.15030
H188        H  0.09024782  0.99955297  0.18938195     0.15030
C189        C  0.07817519  0.04005742  0.21943847     0.36680
C190        C  0.18281928  0.07815087  0.14034650     0.36590
N191        N  0.05655070  0.03174443  0.23519118    -0.43660
N192        N  0.20465576  0.08600429  0.12487708    -0.43660
C193        C  0.15027824  0.11989285  0.36145720    -0.00070
C194        C  0.11710627  0.10189619  0.35135043    -0.11940
C195        C  0.10758471  0.11176490  0.32743374     0.02170
C196        C  0.13122727  0.14068680  0.31336917    -0.00160
C197        C  0.16434421  0.15875169  0.32336098    -0.11880
C198        C  0.17418024  0.14840438  0.34685973     0.02050
H199        H  0.09826035  0.08039367  0.36254681     0.15030
H200        H  0.18291134  0.18053721  0.31226942     0.15030
C201        C  0.20870790  0.16821294  0.35585218     0.36680
C202        C  0.07309391  0.09244920  0.31826697     0.36590
N203        N  0.23641324  0.18414127  0.36296511    -0.43660
N204        N  0.04544089  0.07704546  0.31092731    -0.43660
C205        C  0.04489220  0.12568409  0.51755357    -0.00070
C206        C  0.07816400  0.14903573  0.52458602    -0.11940
C207        C  0.10450775  0.15112191  0.50893331     0.02170
C208        C  0.09719102  0.12897418  0.48631604    -0.00160
C209        C  0.06370924  0.10622246  0.47902719    -0.11880
C210        C  0.03749276  0.10437175  0.49454429     0.02050
H211        H  0.08346919  0.16570135  0.54222189     0.15030
H212        H  0.05795813  0.08891204  0.46181605     0.15030
C213        C  0.00346860  0.07888714  0.48767171     0.36680
C214        C  0.13845433  0.17655526  0.51610642     0.36590
N215        N  0.47630025  0.05820210  0.48226138    -0.43660
N216        N  0.16562849  0.19706761  0.52174827    -0.43660
C217        C  0.03403921  0.24085734  0.79022710    -0.00070
C218        C  0.50344171  0.23138783  0.80385088    -0.11940
C219        C  0.48783132  0.25064736  0.80211613     0.02170
C220        C  0.00306597  0.28037291  0.78682862    -0.00160
C221        C  0.03387179  0.29014798  0.77361210    -0.11880
C222        C  0.04922365  0.27067300  0.77495387     0.02050
H223        H  0.49116118  0.20838179  0.81549991     0.15030
H224        H  0.04601564  0.31316309  0.76195878     0.15030
C225        C  0.08061818  0.28214120  0.76065514     0.36680
C226        C  0.45689623  0.23993434  0.81693824     0.36590
N227        N  0.10577748  0.29139805  0.74915392    -0.43660
N228        N  0.43213394  0.23133991  0.82888644    -0.43660
C229        C  0.11961990  0.14182917  0.82616910    -0.00070
C230        C  0.15475030  0.15600059  0.82536139    -0.11940
C231        C  0.17095229  0.14338154  0.84204730     0.02170
C232        C  0.15206782  0.11711154  0.86071410    -0.00160
C233        C  0.11722896  0.10417349  0.86208175    -0.11880
C234        C  0.10101468  0.11569507  0.84491832     0.02050
H235        H  0.16935735  0.17608225  0.81111010     0.15030
H236        H  0.10208934  0.08368122  0.87588653     0.15030
C237        C  0.06489500  0.09984280  0.84702619     0.36680
C238        C  0.20680256  0.15779619  0.83972473     0.36590
N239        N  0.03596858  0.08670588  0.84891439    -0.43660
N240        N  0.23558723  0.16937670  0.83786522    -0.43660
C241        C  0.49768078  0.12825985  0.64843545    -0.00070
C242        C  0.47688474  0.12681717  0.67011917    -0.11940
C243        C  0.48902783  0.13454766  0.69725905     0.02170
C244        C  0.02288970  0.14417675  0.70318800    -0.00160
C245        C  0.04394434  0.14647364  0.68141070    -0.11880
C246        C  0.03176262  0.13865206  0.65425942     0.02050
H247        H  0.45104426  0.11972052  0.66585377     0.15030
H248        H  0.06996803  0.15422001  0.68560859     0.15030
C249        C  0.05539763  0.14309387  0.63273882     0.36680
C250        C  0.46629311  0.13346340  0.71837476     0.36590
N251        N  0.07442654  0.14682117  0.61553631    -0.43660
N252        N  0.44808568  0.13264767  0.73526538    -0.43660
C253        C  0.22576156  0.48298348  0.12189339    -0.00070
C254        C  0.24711128  0.01077302  0.13878700    -0.11940
C255        C  0.28211540  0.02543872  0.13773011     0.02170
C256        C  0.29653377  0.01213382  0.11970899    -0.00160
C257        C  0.27534062  0.48373249  0.10351215    -0.11880
C258        C  0.24032673  0.46941294  0.10412119     0.02050
H259        H  0.23648710  0.02155061  0.15265851     0.15030
H260        H  0.28626616  0.47312600  0.08977711     0.15030
C261        C  0.22032450  0.44194688  0.08535325     0.36680
C262        C  0.30254118  0.05326065  0.15607715     0.36590
N263        N  0.20436016  0.42008418  0.07015078    -0.43660
N264        N  0.31889449  0.07544453  0.17088735    -0.43660
C265        C  0.48563145  0.12129968  0.15272397    -0.00070
C266        C  0.01657356  0.12858594  0.14121013    -0.11940
C267        C  0.04619945  0.14296629  0.15701127     0.02170
C268        C  0.04583518  0.15130444  0.18527697    -0.00160
C269        C  0.01521930  0.14554811  0.19652754    -0.11880
C270        C  0.48538641  0.13074026  0.18067809     0.02050
H271        H  0.01737461  0.12119666  0.12000691     0.15030
H272        H  0.01423827  0.15130679  0.21815611     0.15030
C273        C  0.45460565  0.12347502  0.19433634     0.36680
C274        C  0.07573766  0.14564167  0.14408113     0.36590
N275        N  0.42995000  0.11757247  0.20538620    -0.43660
N276        N  0.09920798  0.14736290  0.13371737    -0.43660
C277        C  0.28867939  0.49681746  0.89628460    -0.00070
C278        C  0.29507934  0.02394379  0.91385175    -0.11940
C279        C  0.27620719  0.03993607  0.91227168     0.02170
C280        C  0.25015785  0.02905523  0.89257243    -0.00160
C281        C  0.24419719  0.50231193  0.87460240    -0.11880
C282        C  0.26300821  0.48618770  0.87631930     0.02050
H283        H  0.31488142  0.03265798  0.92921359     0.15030
H284        H  0.22425261  0.49341411  0.85936611     0.15030
C285        C  0.25578193  0.45934625  0.85698400     0.36680
C286        C  0.28374653  0.06678455  0.93169500     0.36590
N287        N  0.24995214  0.43786912  0.84142361    -0.43660
N288        N  0.28984756  0.08824419  0.94735075    -0.43660
C289        C  0.37300896  0.39664497  0.85442171    -0.00070
C290        C  0.38958451  0.41213669  0.82994234    -0.11940
C291        C  0.40258426  0.39746324  0.81206897     0.02170
C292        C  0.39976172  0.36632648  0.81861137    -0.00160
C293        C  0.38181798  0.35001605  0.84267351    -0.11880
C294        C  0.36817605  0.36474100  0.86035242     0.02050
H295        H  0.39361066  0.43676742  0.82524905     0.15030
H296        H  0.37952449  0.32634294  0.84825665     0.15030
C297        C  0.35133440  0.34778883  0.88526884     0.36680
C298        C  0.42118944  0.41672241  0.78842448     0.36590
N299        N  0.33774714  0.33420449  0.90525851    -0.43660
N300        N  0.43626791  0.43241069  0.76965478    -0.43660
C301        C  0.41934798  0.04297067  0.85390013    -0.00070
C302        C  0.44060925  0.07306452  0.86791498    -0.11940
C303        C  0.46719420  0.09952507  0.85438042     0.02170
C304        C  0.47289447  0.09563557  0.82628989    -0.00160
C305        C  0.44997147  0.06642248  0.81180996    -0.11880
C306        C  0.42315842  0.04010230  0.82533847     0.02050
H307        H  0.43710232  0.07551739  0.88980568     0.15030
H308        H  0.45360829  0.06356860  0.79002791     0.15030
C309        C  0.40154145  0.00987650  0.80976301     0.36680
C310        C  0.48868112  0.12951573  0.87026557     0.36590
N311        N  0.38425968  0.98576085  0.79716598    -0.43660
N312        N  0.50575832  0.15349862  0.88308689    -0.43660
C313        C  0.37688380  0.48402504  0.98299686    -0.00070
C314        C  0.35312990  0.49015152  0.99588955    -0.11940
C315        C  0.36064118  0.00859472  0.02066875     0.02170
C316        C  0.39221524  0.02057315  0.03348255    -0.00160
C317        C  0.41574799  0.01394720  0.02087982    -0.11880
C318        C  0.40866214  0.99650036  0.99561742     0.02050
H319        H  0.32900655  0.48159399  0.98604411     0.15030
H320        H  0.43980352  0.02247001  0.03082669     0.15030
C321        C  0.43440953  0.99161633  0.98321167     0.36680
C322        C  0.33505964  0.01391011  0.03288282     0.36590
N323        N  0.45513728  0.98787244  0.97322865    -0.43660
N324        N  0.31454423  0.51822918  0.04254316    -0.43660
C325        C  0.22717140  0.23228606  0.23097611    -0.00070
C326        C  0.23984838  0.26051102  0.21423520    -0.11940
C327        C  0.27458531  0.28236393  0.21175282     0.02170
C328        C  0.29745134  0.27673183  0.22701902    -0.00160
C329        C  0.28463730  0.24819980  0.24350328    -0.11880
C330        C  0.24996724  0.22599668  0.24548669     0.02050
H331        H  0.22259758  0.26493212  0.20237566     0.15030
H332        H  0.30169214  0.24360365  0.25546130     0.15030
C333        C  0.23851052  0.19748988  0.26331676     0.36680
C334        C  0.28582129  0.30950953  0.19250558     0.36590
N335        N  0.22948240  0.17463928  0.27755844    -0.43660
N336        N  0.29453741  0.33094513  0.17679713    -0.43660
C337        C  0.03634205  0.39732660  0.15211693    -0.00070
C338        C  0.02438954  0.36475134  0.16216532    -0.11940
C339        C  0.49657019  0.34972208  0.18028795     0.02170
C340        C  0.48137539  0.36794915  0.18961467    -0.00160
C341        C  0.49348379  0.40038710  0.17973271    -0.11880
C342        C  0.02016782  0.41494477  0.16104344     0.02050
H343        H  0.03665544  0.35103569  0.15581031     0.15030
H344        H  0.48171976  0.41446928  0.18655120     0.15030
C345        C  0.03124288  0.44876620  0.15242286     0.36680
C346        C  0.48460665  0.31610189  0.18960494     0.36590
N347        N  0.03990385  0.47580052  0.14554298    -0.43660
N348        N  0.47491410  0.28908620  0.19707852    -0.43660
C349        C  0.39859364  0.42675448  0.19501862    -0.00070
C350        C  0.36891095  0.42017214  0.18173534    -0.11940
C351        C  0.36756363  0.44535982  0.16751234     0.02170
C352        C  0.39639883  0.47731660  0.16647005    -0.00160
C353        C  0.42581432  0.48428660  0.18022984    -0.11880
C354        C  0.42714276  0.45915376  0.19462176     0.02050
H355        H  0.34684771  0.39537528  0.18246391     0.15030
H356        H  0.44800467  0.50898623  0.17888599     0.15030
C357        C  0.45856359  0.46664920  0.20718835     0.36680
C358        C  0.33664634  0.43786965  0.15390954     0.36590
N359        N  0.48374295  0.47253402  0.21717818    -0.43660
N360        N  0.31183683  0.43188278  0.14312659    -0.43660
C361        C  0.23508206  0.22102885  0.44988269    -0.00070
C362        C  0.25760071  0.23440560  0.47214423    -0.11940
C363        C  0.27822279  0.26918680  0.47579976     0.02170
C364        C  0.27691146  0.29141263  0.45667079    -0.00160
C365        C  0.25387916  0.27805482  0.43480177    -0.11880
C366        C  0.23315875  0.24337230  0.43120497     0.02050
H367        H  0.25869466  0.21767362  0.48702372     0.15030
H368        H  0.25293892  0.29473554  0.41976871     0.15030
C369        C  0.21110576  0.23164399  0.40746422     0.36680
C370        C  0.29990556  0.28133753  0.49974525     0.36590
N371        N  0.19348122  0.22248529  0.38841916    -0.43660
N372        N  0.31715802  0.29109179  0.51900495    -0.43660
C373        C  0.39924127  0.03654169  0.52568266    -0.00070
C374        C  0.38537491  0.00484237  0.53776538    -0.11940
C375        C  0.36983392  0.47523038  0.52170528     0.02170
C376        C  0.36778525  0.47665477  0.49260389    -0.00160
C377        C  0.38072134  0.00825519  0.48054066    -0.11880
C378        C  0.39603542  0.03792188  0.49665955     0.02050
H379        H  0.38800667  0.00317736  0.55983099     0.15030
H380        H  0.37996412  0.00987981  0.45827079     0.15030
C381        C  0.41059836  0.06942778  0.48242785     0.36680
C382        C  0.35919809  0.44397157  0.53553032     0.36590
N383        N  0.42243594  0.09463299  0.47092824    -0.43660
N384        N  0.35094447  0.41899650  0.54663317    -0.43660
C385        C  0.38746145  0.36519702  0.31707363    -0.00070
C386        C  0.41325699  0.39122012  0.33253482    -0.11940
C387        C  0.40689859  0.40043745  0.35856938     0.02170
C388        C  0.37378533  0.38411008  0.36927950    -0.00160
C389        C  0.34787590  0.35841071  0.35341368    -0.11880
C390        C  0.35447618  0.34878874  0.32762122     0.02050
H391        H  0.43846969  0.40453807  0.32412970     0.15030
H392        H  0.32244447  0.34535189  0.36136080     0.15030
C393        C  0.32675065  0.32305995  0.31177374     0.36680
C394        C  0.43486728  0.42709075  0.37351493     0.36590
N395        N  0.30451256  0.30255287  0.29902951    -0.43660
N396        N  0.45738889  0.44837874  0.38545894    -0.43660
C397        C  0.03143160  0.29316086  0.55794290    -0.00070
C398        C  0.04530480  0.28060024  0.57672868    -0.11940
C399        C  0.03170440  0.24602837  0.57975177     0.02170
C400        C  0.00348260  0.22314343  0.56390272    -0.00160
C401        C  0.48954030  0.23544000  0.54511277    -0.11880
C402        C  0.00336302  0.27002166  0.54174895     0.02050
H403        H  0.06633045  0.29777766  0.58962691     0.15030
H404        H  0.46839747  0.21797444  0.53243231     0.15030
C405        C  0.48835980  0.28073623  0.52113928     0.36680
C406        C  0.04637169  0.23459201  0.60008031     0.36590
N407        N  0.47630371  0.28918707  0.50455163    -0.43660
N408        N  0.05795370  0.22531169  0.61640430    -0.43660
C409        C  0.12834671  0.48101057  0.52630956    -0.00070
C410        C  0.12649043  0.00929177  0.53457415    -0.11940
C411        C  0.13825397  0.03740249  0.51769587     0.02170
C412        C  0.15353202  0.03859270  0.49203656    -0.00160
C413        C  0.15776883  0.01153590  0.48445133    -0.11880
C414        C  0.14504344  0.48275617  0.50113853     0.02050
H415        H  0.11383607  0.00876413  0.55363742     0.15030
H416        H  0.16914632  0.01196498  0.46472864     0.15030
C417        C  0.14828653  0.45496717  0.49130454     0.36680
C418        C  0.13298370  0.06430622  0.52677751     0.36590
N419        N  0.15088505  0.43269402  0.48332638    -0.43660
N420        N  0.12853321  0.08569209  0.53402968    -0.43660
C421        C  0.48165578  0.39411823  0.52304231    -0.00070
C422        C  0.46799175  0.37226345  0.50025527    -0.11940
C423        C  0.44062841  0.36956989  0.48598853     0.02170
C424        C  0.42679856  0.38926394  0.49445930    -0.00160
C425        C  0.43977077  0.41048215  0.51755869    -0.11880
C426        C  0.46713785  0.41320369  0.53189497     0.02050
H427        H  0.47839148  0.35686123  0.49372442     0.15030
H428        H  0.42902868  0.42562334  0.52400056     0.15030
C429        C  0.47999172  0.43629301  0.55507031     0.36680
C430        C  0.42647379  0.34550673  0.46351760     0.36590
N431        N  0.49020256  0.45481529  0.57362686    -0.43660
N432        N  0.41501638  0.32610852  0.44562782    -0.43660
C433        C  0.02678970  0.37956776  0.64634369    -0.00070
C434        C  0.49249131  0.36854885  0.65085997    -0.11940
C435        C  0.47862878  0.36163742  0.67744763     0.02170
C436        C  0.49925210  0.36624027  0.70032600    -0.00160
C437        C  0.03341406  0.37713218  0.69595508    -0.11880
C438        C  0.04719125  0.38336687  0.66934892     0.02050
H439        H  0.47624713  0.36523409  0.63353266     0.15030
H440        H  0.04941042  0.38037984  0.71347287     0.15030
C441        C  0.08218752  0.39338700  0.66646601     0.36680
C442        C  0.44358074  0.35120612  0.68079527     0.36590
N443        N  0.11021152  0.40124045  0.66424292    -0.43660
N444        N  0.41550675  0.34292551  0.68351559    -0.43660
In445      In  0.05752447  0.89276713  0.56440227     1.36870
C446        C  0.04392526  0.82980856  0.55802412     0.77670
O447        O  0.06883480  0.89312096  0.61007886    -0.60780
O448        O  0.02097890  0.88422763  0.59777818    -0.51690
C449        C  0.10798916  0.94929120  0.54228042     0.70330
O450        O  0.10061360  0.92048199  0.53374408    -0.46550
C451        C  0.50998270  0.89515044  0.53749504     0.75040
O452        O  0.06994121  0.85154519  0.57088370    -0.58410
O453        O  0.51947727  0.90807572  0.56119735    -0.48500
O454        O  0.02771212  0.84150371  0.54668930    -0.54840
C455        C  0.03956788  0.88606520  0.61743705     0.85220
O456        O  0.09336031  0.94867425  0.56445917    -0.56730
O457        O  0.02584602  0.88191679  0.52735909    -0.60020
In458      In  0.35224374  0.89084502  0.45118422     1.36870
C459        C  0.30206914  0.82780013  0.45679676     0.77670
O460        O  0.33681190  0.88184764  0.40615706    -0.60780
O461        O  0.38831102  0.90292613  0.41645445    -0.51690
C462        C  0.35737002  0.94628499  0.47472123     0.70330
O463        O  0.33587764  0.91707138  0.48192774    -0.46550
C464        C  0.39977670  0.88925945  0.47908766     0.75040
O465        O  0.29788711  0.84967087  0.44493427    -0.58410
O466        O  0.39712796  0.88540936  0.45328579    -0.48500
O467        O  0.33074122  0.83902619  0.46713591    -0.54840
C468        C  0.36616262  0.89058033  0.39784018     0.85220
O469        O  0.37197753  0.94707225  0.45245445    -0.56730
O470        O  0.37777864  0.89363188  0.49066884    -0.60020
In471      In  0.39801664  0.84964395  0.23446788     1.36870
C472        C  0.33405725  0.80158407  0.22817071     0.77670
O473        O  0.38984577  0.83189958  0.27892363    -0.60780
O474        O  0.40326692  0.88209503  0.27072691    -0.51690
C475        C  0.45233237  0.85498648  0.20884062     0.70330
O476        O  0.42300133  0.83245322  0.20232914    -0.46550
C477        C  0.39897028  0.89928873  0.20888401     0.75040
O478        O  0.35600882  0.79550005  0.23769794    -0.58410
O479        O  0.41376232  0.90322096  0.23159775    -0.48500
O480        O  0.34554042  0.83142434  0.22096529    -0.54840
C481        C  0.39427423  0.85950341  0.28832414     0.85220
O482        O  0.45383328  0.87004565  0.23102829    -0.56730
O483        O  0.38375444  0.86980385  0.19919765    -0.60020
In484      In  0.35698820  0.96361772  0.90089229     1.36870
C485        C  0.31122521  0.98261620  0.89837767     0.77670
O486        O  0.34067109  0.95067166  0.94518932    -0.60780
O487        O  0.39257627  0.98142991  0.93634271    -0.51690
C488        C  0.36602017  0.91741149  0.87414483     0.70330
O489        O  0.33756981  0.90969314  0.88419822    -0.46550
C490        C  0.39620201  0.51437265  0.87036956     0.75040
O491        O  0.30508088  0.95436198  0.88878765    -0.58410
O492        O  0.40296618  0.51184794  0.89509329    -0.48500
O493        O  0.33943299  0.49923840  0.90984144    -0.54840
C494        C  0.36993375  0.97044276  0.95437858     0.85220
O495        O  0.38892517  0.94656981  0.88021063    -0.56730
O496        O  0.36890012  0.99048421  0.86108760    -0.60020
In497      In  0.39828871  0.54640243  0.11524563     1.36870
C498        C  0.45416386  0.59887423  0.13662860     0.77670
O499        O  0.39167844  0.52484780  0.15706944    -0.60780
O500        O  0.40400657  0.00283800  0.12332671    -0.51690
C501        C  0.33321431  0.52570135  0.11829310     0.70330
O502        O  0.35524615  0.55667190  0.11917692    -0.46550
C503        C  0.39885695  0.53470563  0.06187085     0.75040
O504        O  0.42505286  0.59207031  0.14376631    -0.58410
O505        O  0.41195933  0.52511896  0.07961775    -0.48500
O506        O  0.45421828  0.58234968  0.11576232    -0.54840
C507        C  0.39752872  0.00249599  0.14858254     0.85220
O508        O  0.34476825  0.50634295  0.11582045    -0.56730
O509        O  0.38954401  0.55455640  0.07096293    -0.60020
In510      In  0.05524038  0.66452525  0.78450239     1.36870
C511        C  0.04689076  0.71712778  0.79034740     0.77670
O512        O  0.06689272  0.66971515  0.73836971    -0.60780
O513        O  0.01681812  0.63901882  0.75206805    -0.51690
C514        C  0.10146554  0.65280313  0.80745283     0.70330
O515        O  0.10522335  0.68181873  0.80749907    -0.46550
C516        C  0.50297503  0.62041074  0.81172459     0.75040
O517        O  0.06691433  0.71665871  0.77263236    -0.58410
O518        O  0.50999432  0.61464542  0.78783519    -0.48500
O519        O  0.03581566  0.69344196  0.80711864    -0.54840
C520        C  0.03614528  0.65125480  0.73186132     0.85220
O521        O  0.07753572  0.63207699  0.79257930    -0.56730
O522        O  0.02370675  0.64870767  0.82192715    -0.60020
In523      In  0.47232393  0.62225339  0.56674205     1.36870
C524        C  0.49086271  0.68677679  0.56471359     0.77670
O525        O  0.46101297  0.62619707  0.61162941    -0.60780
O526        O  0.99732938  0.61246311  0.60110297    -0.51690
C527        C  0.42118082  0.56716353  0.54291133     0.70330
O528        O  0.42950363  0.59651200  0.53593455    -0.46550
C529        C  0.01842064  0.62368412  0.53487332     0.75040
O530        O  0.46009246  0.66423465  0.56569085    -0.58410
O531        O  0.01790669  0.61894477  0.56039778    -0.48500
O532        O  0.01093609  0.67600539  0.56427122    -0.54840
C533        C  0.48441609  0.62147698  0.61977232     0.85220
O534        O  0.43551103  0.56619413  0.56472644    -0.56730
O535        O  0.99498449  0.62717098  0.52546538    -0.60020
In536      In  0.16726312  0.61870704  0.44374175     1.36870
C537        C  0.21222134  0.68416569  0.44753484     0.78030
O538        O  0.18587015  0.62311663  0.39983297    -0.60780
O539        O  0.13356655  0.59951650  0.40714865    -0.51690
C540        C  0.15975713  0.56545658  0.47207804     0.70330
O541        O  0.18776471  0.58595529  0.46129712    -0.46550
C542        C  0.12331941  0.62701377  0.47089922     0.75040
O543        O  0.21829047  0.66242894  0.45733326    -0.58410
O544        O  0.11790513  0.61444073  0.44691513    -0.48500
O545        O  0.18407585  0.67199488  0.43597627    -0.54840
C546        C  0.15692013  0.61281996  0.38984807     0.85220
O547        O  0.13652915  0.57081541  0.46605287    -0.56730
O548        O  0.15190550  0.63592888  0.48094316    -0.60020
In549      In  0.12570164  0.66202027  0.23276538     1.36870
C550        C  0.19055085  0.70821660  0.23135219     0.77670
O551        O  0.13663221  0.67889631  0.27736107    -0.60780
O552        O  0.10798588  0.62676059  0.26790477    -0.51690
C553        C  0.07555256  0.66113988  0.20376298     0.70330
O554        O  0.10468000  0.67178661  0.19457481    -0.46550
C555        C  0.12558851  0.61185868  0.20732548     0.75040
O556        O  0.16806522  0.71640507  0.23145108    -0.58410
O557        O  0.10863906  0.60801977  0.22879646    -0.48500
O558        O  0.17946493  0.67719958  0.23145274    -0.54840
C559        C  0.12405319  0.64916834  0.28585597     0.85220
O560        O  0.07349275  0.65648789  0.22950270    -0.56730
O561        O  0.14170859  0.64140026  0.19858767    -0.60020
In562      In  0.17409071  0.55084923  0.89892770     1.36870
C563        C  0.22588727  0.54139764  0.89243029     0.77670
O564        O  0.17986316  0.56211395  0.94505795    -0.60780
O565        O  0.15156036  0.51166997  0.93095367    -0.51690
C566        C  0.16570111  0.59930863  0.87704515     0.70330
O567        O  0.18931929  0.59477632  0.86931490    -0.46550
C568        C  0.12315035  0.00273546  0.87269474     0.75040
O569        O  0.22773625  0.56455115  0.90800899    -0.58410
O570        O  0.11951805  0.01546328  0.89462970    -0.48500
O571        O  0.19969112  0.52705491  0.87787496    -0.54840
C572        C  0.16253658  0.53143079  0.95133678     0.85220
O573        O  0.15110351  0.58342613  0.89842055    -0.56730
O574        O  0.15277469  0.51520558  0.86390501    -0.60020
In575      In  0.12713680  0.96116279  0.11510205     1.36870
C576        C  0.18936231  0.97192668  0.12133540     0.77670
O577        O  0.12827371  0.94982486  0.06960244    -0.60780
O578        O  0.12835540  0.99406300  0.08149728    -0.51690
C579        C  0.06733471  0.91456695  0.13480531     0.70330
O580        O  0.09367727  0.91337272  0.13934819    -0.46550
C581        C  0.13087385  0.50814757  0.14745443     0.75040
O582        O  0.16672688  0.94597244  0.10907190    -0.58410
O583        O  0.13297927  0.51088173  0.12156633    -0.48500
O584        O  0.17891997  0.48965752  0.13222242    -0.54840
C585        C  0.13076325  0.97710899  0.06204961     0.85220
O586        O  0.07089597  0.93523901  0.11656745    -0.56730
O587        O  0.12705531  0.98118270  0.15698203    -0.60020
In588      In  0.47116996  0.84918118  0.78206462     1.36870
C589        C  0.48967070  0.80350332  0.78571258     0.77670
O590        O  0.45864005  0.83643510  0.73666056    -0.60780
O591        O  0.00486966  0.87963268  0.74836945    -0.51690
C592        C  0.41987436  0.85398191  0.80321935     0.70330
O593        O  0.42931600  0.83520257  0.81369461    -0.46550
C594        C  0.01396962  0.89688655  0.81433316     0.75040
O595        O  0.45872963  0.79484838  0.78540305    -0.58410
O596        O  0.00370526  0.90296466  0.79232213    -0.48500
O597        O  0.00961031  0.83452411  0.78466302    -0.54840
C598        C  0.48676715  0.86068172  0.72909146     0.85220
O599        O  0.43230106  0.86462485  0.77973835    -0.56730
O600        O  0.00144839  0.86646155  0.82024761    -0.60020
C601        C  0.09493623  0.97502005  0.85864328    -0.00070
C602        C  0.06598734  0.97693149  0.85420690    -0.11940
C603        C  0.03879471  0.95133672  0.83993607     0.02170
C604        C  0.04041511  0.92320057  0.83088244    -0.00160
C605        C  0.06886008  0.92072575  0.83622842    -0.11880
C606        C  0.09642428  0.94670644  0.84974151     0.02050
H607        H  0.06498661  0.99874243  0.86131549     0.15030
H608        H  0.06988599  0.89892269  0.82909079     0.15030
C609        C  0.12554203  0.94345993  0.85467153     0.36680
C610        C  0.00942401  0.95415256  0.83528941     0.36590
N611        N  0.14884994  0.94085382  0.85860203    -0.43660
N612        N  0.98591510  0.95649292  0.83168240    -0.43660
C613        C  0.15520493  0.51856131  0.97994406    -0.00070
C614        C  0.14916293  0.98601083  0.98460787    -0.11940
C615        C  0.14086230  0.97172427  0.01087904     0.02170
C616        C  0.13778243  0.98987440  0.03325930    -0.00160
C617        C  0.14366516  0.52243158  0.02846924    -0.11880
C618        C  0.15246628  0.53686960  0.00225544     0.02050
H619        H  0.15124929  0.97166644  0.96762155     0.15030
H620        H  0.14167708  0.53695423  0.04534509     0.15030
C621        C  0.15739835  0.56999891  0.99869942     0.36680
C622        C  0.13603037  0.93859430  0.01410967     0.36590
N623        N  0.16129301  0.59653110  0.99583692    -0.43660
N624        N  0.13229748  0.91208154  0.01665068    -0.43660
C625        C  0.12755852  0.58451661  0.19372158    -0.00070
C626        C  0.15313142  0.59304177  0.17423186    -0.11940
C627        C  0.15568757  0.56829550  0.15982972     0.02170
C628        C  0.13235326  0.53448549  0.16497184    -0.00160
C629        C  0.10802037  0.52574035  0.18547513    -0.11880
C630        C  0.10514911  0.55048547  0.19975738     0.02050
H631        H  0.17111882  0.61910345  0.17007086     0.15030
H632        H  0.09024784  0.49955297  0.18938195     0.15030
C633        C  0.07817520  0.54005742  0.21943846     0.36680
C634        C  0.18281927  0.57815088  0.14034647     0.36590
N635        N  0.05655072  0.53174444  0.23519119    -0.43660
N636        N  0.20465574  0.58600431  0.12487705    -0.43660
C637        C  0.15027824  0.61989286  0.36145721    -0.00070
C638        C  0.11710628  0.60189619  0.35135043    -0.11940
C639        C  0.10758471  0.61176489  0.32743374     0.02170
C640        C  0.13122726  0.64068680  0.31336918    -0.00160
C641        C  0.16434421  0.65875169  0.32336099    -0.11880
C642        C  0.17418024  0.64840439  0.34685974     0.02050
H643        H  0.09826036  0.58039366  0.36254681     0.15030
H644        H  0.18291133  0.68053722  0.31226943     0.15030
C645        C  0.20870789  0.66821297  0.35585219     0.36680
C646        C  0.07309392  0.59244918  0.31826696     0.36590
N647        N  0.23641323  0.68414131  0.36296514    -0.43660
N648        N  0.04544090  0.57704543  0.31092730    -0.43660
C649        C  0.04489220  0.62568409  0.51755357    -0.00070
C650        C  0.07816400  0.64903574  0.52458601    -0.11940
C651        C  0.10450775  0.65112192  0.50893330     0.02170
C652        C  0.09719102  0.62897418  0.48631604    -0.00160
C653        C  0.06370924  0.60622244  0.47902721    -0.11880
C654        C  0.03749276  0.60437174  0.49454431     0.02050
H655        H  0.08346919  0.66570138  0.54222187     0.15030
H656        H  0.05795813  0.58891201  0.46181608     0.15030
C657        C  0.00346860  0.57888711  0.48767173     0.36680
C658        C  0.13845433  0.67655529  0.51610640     0.36590
N659        N  0.47630025  0.55820212  0.48226135    -0.43660
N660        N  0.16562849  0.69706764  0.52174824    -0.43660
C661        C  0.03403922  0.74085734  0.79022710    -0.00070
C662        C  0.50344171  0.73138783  0.80385088    -0.11940
C663        C  0.48783132  0.75064736  0.80211613     0.02170
C664        C  0.00306598  0.78037291  0.78682862    -0.00160
C665        C  0.03387181  0.79014799  0.77361211    -0.11880
C666        C  0.04922367  0.77067301  0.77495388     0.02050
H667        H  0.49116118  0.70838179  0.81549991     0.15030
H668        H  0.04601566  0.81316311  0.76195880     0.15030
C669        C  0.08061820  0.78214122  0.76065516     0.36680
C670        C  0.45689623  0.73993433  0.81693824     0.36590
N671        N  0.10577751  0.79139807  0.74915395    -0.43660
N672        N  0.43213394  0.73133990  0.82888644    -0.43660
C673        C  0.11961991  0.64182917  0.82616909    -0.00070
C674        C  0.15475031  0.65600060  0.82536139    -0.11940
C675        C  0.17095230  0.64338155  0.84204730     0.02170
C676        C  0.15206782  0.61711153  0.86071409    -0.00160
C677        C  0.11722896  0.60417347  0.86208173    -0.11880
C678        C  0.10101469  0.61569505  0.84491830     0.02050
H679        H  0.16935736  0.67608227  0.81111011     0.15030
H680        H  0.10208934  0.58368119  0.87588649     0.15030
C681        C  0.06489501  0.59984276  0.84702614     0.36680
C682        C  0.20680257  0.65779621  0.83972475     0.36590
N683        N  0.03596858  0.58670583  0.84891434    -0.43660
N684        N  0.23558725  0.66937673  0.83786525    -0.43660
C685        C  0.49768078  0.62825985  0.64843545    -0.00070
C686        C  0.47688475  0.62681717  0.67011917    -0.11940
C687        C  0.48902784  0.63454766  0.69725905     0.02170
C688        C  0.02288971  0.64417675  0.70318799    -0.00160
C689        C  0.04394434  0.64647365  0.68141069    -0.11880
C690        C  0.03176262  0.63865208  0.65425941     0.02050
H691        H  0.45104427  0.61972053  0.66585377     0.15030
H692        H  0.06996804  0.65422002  0.68560858     0.15030
C693        C  0.05539763  0.64309389  0.63273881     0.36680
C694        C  0.46629311  0.63346341  0.71837476     0.36590
N695        N  0.07442654  0.64682120  0.61553630    -0.43660
N696        N  0.44808569  0.63264768  0.73526537    -0.43660
C697        C  0.22576156  0.98298349  0.12189339    -0.00070
C698        C  0.24711128  0.51077300  0.13878701    -0.11940
C699        C  0.28211540  0.52543871  0.13773012     0.02170
C700        C  0.29653377  0.51213381  0.11970899    -0.00160
C701        C  0.27534062  0.98373249  0.10351217    -0.11880
C702        C  0.24032673  0.96941294  0.10412120     0.02050
H703        H  0.23648710  0.52155059  0.15265852     0.15030
H704        H  0.28626616  0.97312599  0.08977713     0.15030
C705        C  0.22032449  0.94194687  0.08535327     0.36680
C706        C  0.30254117  0.55326063  0.15607716     0.36590
N707        N  0.20436016  0.92008417  0.07015080    -0.43660
N708        N  0.31889449  0.57544450  0.17088736    -0.43660
C709        C  0.48563146  0.62129967  0.15272397    -0.00070
C710        C  0.01657356  0.62858594  0.14121013    -0.11940
C711        C  0.04619946  0.64296629  0.15701128     0.02170
C712        C  0.04583518  0.65130444  0.18527698    -0.00160
C713        C  0.01521930  0.64554811  0.19652755    -0.11880
C714        C  0.48538641  0.63074026  0.18067808     0.02050
H715        H  0.01737461  0.62119666  0.12000691     0.15030
H716        H  0.01423827  0.65130680  0.21815611     0.15030
C717        C  0.45460566  0.62347504  0.19433633     0.36680
C718        C  0.07573766  0.64564167  0.14408114     0.36590
N719        N  0.42995001  0.61757250  0.20538619    -0.43660
N720        N  0.09920798  0.64736290  0.13371738    -0.43660
C721        C  0.28867939  0.99681746  0.89628460    -0.00070
C722        C  0.29507934  0.52394379  0.91385175    -0.11940
C723        C  0.27620719  0.53993607  0.91227168     0.02170
C724        C  0.25015786  0.52905523  0.89257243    -0.00160
C725        C  0.24419718  0.00231192  0.87460241    -0.11880
C726        C  0.26300820  0.98618769  0.87631930     0.02050
H727        H  0.31488142  0.53265797  0.92921360     0.15030
H728        H  0.22425260  0.99341410  0.85936611     0.15030
C729        C  0.25578192  0.95934624  0.85698401     0.36680
C730        C  0.28374653  0.56678455  0.93169501     0.36590
N731        N  0.24995212  0.93786911  0.84142361    -0.43660
N732        N  0.28984755  0.58824419  0.94735075    -0.43660
C733        C  0.37300895  0.89664497  0.85442171    -0.00070
C734        C  0.38958451  0.91213669  0.82994233    -0.11940
C735        C  0.40258426  0.89746324  0.81206896     0.02170
C736        C  0.39976172  0.86632648  0.81861136    -0.00160
C737        C  0.38181798  0.85001605  0.84267350    -0.11880
C738        C  0.36817605  0.86474100  0.86035241     0.02050
H739        H  0.39361066  0.93676742  0.82524905     0.15030
H740        H  0.37952448  0.82634294  0.84825664     0.15030
C741        C  0.35133439  0.84778883  0.88526884     0.36680
C742        C  0.42118944  0.91672241  0.78842448     0.36590
N743        N  0.33774713  0.83420449  0.90525850    -0.43660
N744        N  0.43626791  0.93241069  0.76965478    -0.43660
C745        C  0.41934797  0.54297066  0.85390013    -0.00070
C746        C  0.44060924  0.57306452  0.86791497    -0.11940
C747        C  0.46719418  0.59952508  0.85438041     0.02170
C748        C  0.47289446  0.59563557  0.82628989    -0.00160
C749        C  0.44997147  0.56642248  0.81180996    -0.11880
C750        C  0.42315842  0.54010229  0.82533846     0.02050
H751        H  0.43710229  0.57551740  0.88980567     0.15030
H752        H  0.45360830  0.56356859  0.79002791     0.15030
C753        C  0.40154145  0.50987649  0.80976301     0.36680
C754        C  0.48868109  0.62951574  0.87026556     0.36590
N755        N  0.38425969  0.48576083  0.79716598    -0.43660
N756        N  0.50575829  0.65349863  0.88308688    -0.43660
C757        C  0.37688380  0.98402504  0.98299686    -0.00070
C758        C  0.35312989  0.99015151  0.99588955    -0.11940
C759        C  0.36064119  0.50859473  0.02066875     0.02170
C760        C  0.39221525  0.52057315  0.03348255    -0.00160
C761        C  0.41574799  0.51394720  0.02087983    -0.11880
C762        C  0.40866214  0.49650036  0.99561742     0.02050
H763        H  0.32900654  0.98159397  0.98604412     0.15030
H764        H  0.43980352  0.52247000  0.03082669     0.15030
C765        C  0.43440953  0.49161632  0.98321167     0.36680
C766        C  0.33505965  0.51391013  0.03288281     0.36590
N767        N  0.45513728  0.48787242  0.97322865    -0.43660
N768        N  0.31454422  0.01822915  0.04254317    -0.43660
C769        C  0.22717140  0.73228606  0.23097611    -0.00070
C770        C  0.23984838  0.76051101  0.21423520    -0.11940
C771        C  0.27458531  0.78236392  0.21175281     0.02170
C772        C  0.29745134  0.77673182  0.22701901    -0.00160
C773        C  0.28463730  0.74819979  0.24350328    -0.11880
C774        C  0.24996724  0.72599668  0.24548670     0.02050
H775        H  0.22259758  0.76493211  0.20237566     0.15030
H776        H  0.30169214  0.74360365  0.25546131     0.15030
C777        C  0.23851052  0.69748988  0.26331678     0.36680
C778        C  0.28582129  0.80950952  0.19250558     0.36590
N779        N  0.22948240  0.67463928  0.27755846    -0.43660
N780        N  0.29453741  0.83094511  0.17679713    -0.43660
C781        C  0.03634205  0.89732660  0.15211693    -0.00070
C782        C  0.02438955  0.86475133  0.16216533    -0.11940
C783        C  0.49657019  0.84972208  0.18028793     0.02170
C784        C  0.48137539  0.86794916  0.18961466    -0.00160
C785        C  0.49348379  0.90038712  0.17973270    -0.11880
C786        C  0.02016781  0.91494476  0.16104344     0.02050
H787        H  0.03665545  0.85103569  0.15581032     0.15030
H788        H  0.48171978  0.91446929  0.18655120     0.15030
C789        C  0.03124288  0.94876619  0.15242286     0.36680
C790        C  0.48460664  0.81610190  0.18960491     0.36590
N791        N  0.03990384  0.97580051  0.14554298    -0.43660
N792        N  0.47491408  0.78908620  0.19707849    -0.43660
C793        C  0.39859366  0.92675448  0.19501861    -0.00070
C794        C  0.36891097  0.92017214  0.18173533    -0.11940
C795        C  0.36756365  0.94535981  0.16751232     0.02170
C796        C  0.39639884  0.97731660  0.16647004    -0.00160
C797        C  0.42581434  0.98428661  0.18022983    -0.11880
C798        C  0.42714278  0.95915376  0.19462175     0.02050
H799        H  0.34684773  0.89537528  0.18246389     0.15030
H800        H  0.44800468  0.00898623  0.17888598     0.15030
C801        C  0.45856361  0.96664921  0.20718833     0.36680
C802        C  0.33664636  0.93786965  0.15390953     0.36590
N803        N  0.48374297  0.97253404  0.21717817    -0.43660
N804        N  0.31183684  0.93188277  0.14312658    -0.43660
C805        C  0.23508206  0.72102884  0.44988270    -0.00070
C806        C  0.25760073  0.73440560  0.47214423    -0.11940
C807        C  0.27822282  0.76918679  0.47579976     0.02170
C808        C  0.27691148  0.79141262  0.45667080    -0.00160
C809        C  0.25387917  0.77805482  0.43480178    -0.11880
C810        C  0.23315875  0.74337230  0.43120499     0.02050
H811        H  0.25869468  0.71767361  0.48702371     0.15030
H812        H  0.25293891  0.79473554  0.41976873     0.15030
C813        C  0.21110574  0.73164400  0.40746425     0.36680
C814        C  0.29990560  0.78133752  0.49974524     0.36590
N815        N  0.19348119  0.72248530  0.38841919    -0.43660
N816        N  0.31715808  0.79109178  0.51900494    -0.43660
C817        C  0.39924127  0.53654169  0.52568266    -0.00070
C818        C  0.38537491  0.50484238  0.53776538    -0.11940
C819        C  0.36983392  0.97523038  0.52170527     0.02170
C820        C  0.36778526  0.97665476  0.49260389    -0.00160
C821        C  0.38072133  0.50825520  0.48054066    -0.11880
C822        C  0.39603541  0.53792189  0.49665955     0.02050
H823        H  0.38800667  0.50317736  0.55983099     0.15030
H824        H  0.37996411  0.50987982  0.45827079     0.15030
C825        C  0.41059835  0.56942779  0.48242785     0.36680
C826        C  0.35919810  0.94397156  0.53553032     0.36590
N827        N  0.42243593  0.59463299  0.47092825    -0.43660
N828        N  0.35094448  0.91899650  0.54663317    -0.43660
C829        C  0.38746145  0.86519701  0.31707363    -0.00070
C830        C  0.41325700  0.89122009  0.33253482    -0.11940
C831        C  0.40689861  0.90043743  0.35856938     0.02170
C832        C  0.37378534  0.88411008  0.36927950    -0.00160
C833        C  0.34787590  0.85841073  0.35341367    -0.11880
C834        C  0.35447618  0.84878875  0.32762121     0.02050
H835        H  0.43846971  0.90453803  0.32412970     0.15030
H836        H  0.32244447  0.84535193  0.36136079     0.15030
C837        C  0.32675064  0.82305999  0.31177373     0.36680
C838        C  0.43486731  0.92709070  0.37351494     0.36590
N839        N  0.30451255  0.80255292  0.29902949    -0.43660
N840        N  0.45738893  0.94837867  0.38545896    -0.43660
C841        C  0.03143159  0.79316087  0.55794289    -0.00070
C842        C  0.04530479  0.78060025  0.57672868    -0.11940
C843        C  0.03170438  0.74602837  0.57975177     0.02170
C844        C  0.00348259  0.72314344  0.56390272    -0.00160
C845        C  0.48954030  0.73544001  0.54511279    -0.11880
C846        C  0.00336302  0.77002167  0.54174894     0.02050
H847        H  0.06633043  0.79777766  0.58962692     0.15030
H848        H  0.46839746  0.71797444  0.53243234     0.15030
C849        C  0.48835978  0.78073623  0.52113931     0.36680
C850        C  0.04637167  0.73459202  0.60008032     0.36590
N851        N  0.47630367  0.78918707  0.50455167    -0.43660
N852        N  0.05795367  0.72531169  0.61640431    -0.43660
C853        C  0.12834671  0.98101057  0.52630956    -0.00070
C854        C  0.12649043  0.50929177  0.53457415    -0.11940
C855        C  0.13825398  0.53740249  0.51769588     0.02170
C856        C  0.15353202  0.53859270  0.49203656    -0.00160
C857        C  0.15776883  0.51153590  0.48445133    -0.11880
C858        C  0.14504344  0.98275618  0.50113854     0.02050
H859        H  0.11383608  0.50876413  0.55363742     0.15030
H860        H  0.16914631  0.51196498  0.46472864     0.15030
C861        C  0.14828654  0.95496718  0.49130454     0.36680
C862        C  0.13298371  0.56430622  0.52677752     0.36590
N863        N  0.15088506  0.93269402  0.48332639    -0.43660
N864        N  0.12853323  0.58569210  0.53402969    -0.43660
C865        C  0.48165582  0.89411825  0.52304231    -0.00070
C866        C  0.46799177  0.87226345  0.50025528    -0.11940
C867        C  0.44062842  0.86956988  0.48598855     0.02170
C868        C  0.42679858  0.88926395  0.49445930    -0.00160
C869        C  0.43977082  0.91048218  0.51755868    -0.11880
C870        C  0.46713790  0.91320373  0.53189496     0.02050
H871        H  0.47839148  0.85686121  0.49372444     0.15030
H872        H  0.42902874  0.92562340  0.52400054     0.15030
C873        C  0.47999180  0.93629309  0.55507027     0.36680
C874        C  0.42647378  0.84550670  0.46351764     0.36590
N875        N  0.49020266  0.95481538  0.57362680    -0.43660
N876        N  0.41501636  0.82610847  0.44562786    -0.43660
C877        C  0.02678969  0.87956776  0.64634369    -0.00070
C878        C  0.49249132  0.86854886  0.65085997    -0.11940
C879        C  0.47862879  0.86163744  0.67744763     0.02170
C880        C  0.49925211  0.86624027  0.70032600    -0.00160
C881        C  0.03341406  0.87713218  0.69595508    -0.11880
C882        C  0.04719124  0.88336687  0.66934892     0.02050
H883        H  0.47624716  0.86523411  0.63353267     0.15030
H884        H  0.04941042  0.88037984  0.71347286     0.15030
C885        C  0.08218752  0.89338700  0.66646600     0.36680
C886        C  0.44358076  0.85120614  0.68079527     0.36590
N887        N  0.11021152  0.90124046  0.66424291    -0.43660
N888        N  0.41550677  0.84292554  0.68351560    -0.43660
In889      In  0.55752446  0.39276712  0.56440227     1.36870
C890        C  0.54392525  0.32980856  0.55802411     0.77670
O891        O  0.56883479  0.39312096  0.61007886    -0.60780
O892        O  0.52097889  0.38422761  0.59777818    -0.51690
C893        C  0.60798915  0.44929119  0.54228042     0.70330
O894        O  0.60061359  0.42048198  0.53374408    -0.46550
C895        C  0.00998268  0.39515042  0.53749505     0.75040
O896        O  0.56994120  0.35154519  0.57088371    -0.58410
O897        O  0.01947726  0.40807571  0.56119736    -0.48500
O898        O  0.52771212  0.34150370  0.54668929    -0.54840
C899        C  0.53956787  0.38606519  0.61743704     0.85220
O900        O  0.59336030  0.44867425  0.56445916    -0.56730
O901        O  0.52584601  0.38191678  0.52735909    -0.60020
In902      In  0.85224373  0.39084502  0.45118422     1.36870
C903        C  0.80206913  0.32780013  0.45679676     0.77670
O904        O  0.83681189  0.38184765  0.40615706    -0.60780
O905        O  0.88831101  0.40292612  0.41645445    -0.51690
C906        C  0.85737002  0.44628500  0.47472123     0.70330
O907        O  0.83587763  0.41707138  0.48192774    -0.46550
C908        C  0.89977669  0.38925944  0.47908767     0.75040
O909        O  0.79788711  0.34967088  0.44493426    -0.58410
O910        O  0.89712796  0.38540938  0.45328579    -0.48500
O911        O  0.83074121  0.33902619  0.46713591    -0.54840
C912        C  0.86616261  0.39058033  0.39784019     0.85220
O913        O  0.87197753  0.44707226  0.45245445    -0.56730
O914        O  0.87777862  0.39363185  0.49066885    -0.60020
In915      In  0.89801663  0.34964395  0.23446788     1.36870
C916        C  0.83405725  0.30158406  0.22817071     0.77670
O917        O  0.88984588  0.33189962  0.27892365    -0.60780
O918        O  0.90326676  0.38209500  0.27072690    -0.51690
C919        C  0.95233237  0.35498649  0.20884063     0.70330
O920        O  0.92300134  0.33245321  0.20232916    -0.46550
C921        C  0.89897030  0.39928873  0.20888400     0.75040
O922        O  0.85600881  0.29550004  0.23769796    -0.58410
O923        O  0.91376237  0.40322096  0.23159773    -0.48500
O924        O  0.84554043  0.33142431  0.22096526    -0.54840
C925        C  0.89427421  0.35950341  0.28832414     0.85220
O926        O  0.95383328  0.37004568  0.23102829    -0.56730
O927        O  0.88375443  0.36980384  0.19919766    -0.60020
In928      In  0.85698821  0.46361772  0.90089229     1.36870
C929        C  0.81122522  0.48261621  0.89837767     0.77670
O930        O  0.84067109  0.45067166  0.94518933    -0.60780
O931        O  0.89257628  0.48142991  0.93634271    -0.51690
C932        C  0.86602018  0.41741149  0.87414483     0.70330
O933        O  0.83756981  0.40969315  0.88419823    -0.46550
C934        C  0.89620200  0.01437265  0.87036956     0.75040
O935        O  0.80508089  0.45436199  0.88878765    -0.58410
O936        O  0.90296617  0.01184794  0.89509329    -0.48500
O937        O  0.83943298  0.99923839  0.90984144    -0.54840
C938        C  0.86993376  0.47044276  0.95437858     0.85220
O939        O  0.88892518  0.44656981  0.88021064    -0.56730
O940        O  0.86890013  0.49048421  0.86108760    -0.60020
In941      In  0.89828872  0.04640243  0.11524562     1.36870
C942        C  0.95416386  0.09887423  0.13662860     0.77670
O943        O  0.89167843  0.02484780  0.15706943    -0.60780
O944        O  0.90400654  0.50283797  0.12332670    -0.51690
C945        C  0.83321431  0.02570135  0.11829309     0.70330
O946        O  0.85524615  0.05667190  0.11917691    -0.46550
C947        C  0.89885695  0.03470562  0.06187084     0.75040
O948        O  0.92505286  0.09207031  0.14376631    -0.58410
O949        O  0.91195932  0.02511895  0.07961774    -0.48500
O950        O  0.95421828  0.08234969  0.11576232    -0.54840
C951        C  0.89752873  0.50249598  0.14858254     0.85220
O952        O  0.84476825  0.00634295  0.11582045    -0.56730
O953        O  0.88954401  0.05455639  0.07096292    -0.60020
In954      In  0.55524038  0.16452525  0.78450239     1.36870
C955        C  0.54689076  0.21712777  0.79034740     0.77670
O956        O  0.56689271  0.16971515  0.73836971    -0.60780
O957        O  0.51681812  0.13901883  0.75206805    -0.51690
C958        C  0.60146554  0.15280313  0.80745283     0.70330
O959        O  0.60522335  0.18181873  0.80749907    -0.46550
C960        C  0.00297502  0.12041074  0.81172459     0.75040
O961        O  0.56691432  0.21665871  0.77263236    -0.58410
O962        O  0.00999432  0.11464542  0.78783520    -0.48500
O963        O  0.53581565  0.19344196  0.80711864    -0.54840
C964        C  0.53614528  0.15125480  0.73186132     0.85220
O965        O  0.57753572  0.13207700  0.79257930    -0.56730
O966        O  0.52370674  0.14870767  0.82192715    -0.60020
In967      In  0.97232393  0.12225339  0.56674206     1.36870
C968        C  0.99086271  0.18677678  0.56471359     0.77670
O969        O  0.96101296  0.12619707  0.61162942    -0.60780
O970        O  0.49732937  0.11246311  0.60110297    -0.51690
C971        C  0.92118082  0.06716352  0.54291134     0.70330
O972        O  0.92950363  0.09651199  0.53593456    -0.46550
C973        C  0.51842064  0.12368413  0.53487332     0.75040
O974        O  0.96009246  0.16423465  0.56569085    -0.58410
O975        O  0.51790669  0.11894477  0.56039778    -0.48500
O976        O  0.51093609  0.17600539  0.56427122    -0.54840
C977        C  0.98441608  0.12147698  0.61977233     0.85220
O978        O  0.93551103  0.06619413  0.56472645    -0.56730
O979        O  0.49498449  0.12717098  0.52546538    -0.60020
In980      In  0.66726312  0.11870704  0.44374175     1.36870
C981        C  0.71222134  0.18416569  0.44753484     0.78030
O982        O  0.68587014  0.12311662  0.39983297    -0.60780
O983        O  0.63356655  0.09951650  0.40714865    -0.51690
C984        C  0.65975713  0.06545658  0.47207804     0.70330
O985        O  0.68776471  0.08595529  0.46129711    -0.46550
C986        C  0.62331941  0.12701378  0.47089921     0.75040
O987        O  0.71829047  0.16242895  0.45733326    -0.58410
O988        O  0.61790513  0.11444073  0.44691513    -0.48500
O989        O  0.68407586  0.17199488  0.43597626    -0.54840
C990        C  0.65692012  0.11281996  0.38984807     0.85220
O991        O  0.63652915  0.07081542  0.46605288    -0.56730
O992        O  0.65190550  0.13592889  0.48094316    -0.60020
In993      In  0.62570164  0.16202027  0.23276538     1.36870
C994        C  0.69055084  0.20821659  0.23135219     0.77670
O995        O  0.63663221  0.17889631  0.27736107    -0.60780
O996        O  0.60798587  0.12676059  0.26790478    -0.51690
C997        C  0.57555256  0.16113988  0.20376298     0.70330
O998        O  0.60467999  0.17178660  0.19457481    -0.46550
C999        C  0.62558851  0.11185867  0.20732548     0.75040
O1000       O  0.66806521  0.21640507  0.23145108    -0.58410
O1001       O  0.60863906  0.10801977  0.22879647    -0.48500
O1002       O  0.67946493  0.17719957  0.23145275    -0.54840
C1003       C  0.62405318  0.14916833  0.28585597     0.85220
O1004       O  0.57349275  0.15648789  0.22950270    -0.56730
O1005       O  0.64170859  0.14140025  0.19858767    -0.60020
In1006     In  0.67409071  0.05084923  0.89892770     1.36870
C1007       C  0.72588726  0.04139764  0.89243029     0.77670
O1008       O  0.67986317  0.06211396  0.94505795    -0.60780
O1009       O  0.65156036  0.01166998  0.93095367    -0.51690
C1010       C  0.66570112  0.09930864  0.87704515     0.70330
O1011       O  0.68931929  0.09477633  0.86931489    -0.46550
C1012       C  0.62315036  0.50273545  0.87269474     0.75040
O1013       O  0.72773625  0.06455115  0.90800899    -0.58410
O1014       O  0.61951805  0.51546327  0.89462971    -0.48500
O1015       O  0.69969112  0.02705491  0.87787495    -0.54840
C1016       C  0.66253658  0.03143080  0.95133677     0.85220
O1017       O  0.65110352  0.08342614  0.89842055    -0.56730
O1018       O  0.65277468  0.01520558  0.86390501    -0.60020
In1019     In  0.62713680  0.46116279  0.11510206     1.36870
C1020       C  0.68936232  0.47192667  0.12133541     0.77670
O1021       O  0.62827372  0.44982486  0.06960245    -0.60780
O1022       O  0.62835540  0.49406300  0.08149728    -0.51690
C1023       C  0.56733472  0.41456695  0.13480531     0.70330
O1024       O  0.59367728  0.41337272  0.13934819    -0.46550
C1025       C  0.63087385  0.00814756  0.14745444     0.75040
O1026       O  0.66672688  0.44597244  0.10907190    -0.58410
O1027       O  0.63297926  0.01088172  0.12156634    -0.48500
O1028       O  0.67891998  0.98965753  0.13222241    -0.54840
C1029       C  0.63076325  0.47710898  0.06204962     0.85220
O1030       O  0.57089598  0.43523900  0.11656745    -0.56730
O1031       O  0.62705530  0.48118271  0.15698203    -0.60020
In1032     In  0.97116995  0.34918118  0.78206462     1.36870
C1033       C  0.98967069  0.30350332  0.78571258     0.77670
O1034       O  0.95864005  0.33643510  0.73666056    -0.60780
O1035       O  0.50486965  0.37963269  0.74836945    -0.51690
C1036       C  0.91987436  0.35398191  0.80321935     0.70330
O1037       O  0.92931600  0.33520258  0.81369461    -0.46550
C1038       C  0.51396962  0.39688655  0.81433315     0.75040
O1039       O  0.95872962  0.29484838  0.78540305    -0.58410
O1040       O  0.50370526  0.40296466  0.79232212    -0.48500
O1041       O  0.50961030  0.33452411  0.78466302    -0.54840
C1042       C  0.98676715  0.36068173  0.72909145     0.85220
O1043       O  0.93230106  0.36462485  0.77973835    -0.56730
O1044       O  0.50144840  0.36646156  0.82024761    -0.60020
C1045       C  0.59493623  0.47502005  0.85864328    -0.00070
C1046       C  0.56598735  0.47693149  0.85420690    -0.11940
C1047       C  0.53879472  0.45133673  0.83993606     0.02170
C1048       C  0.54041511  0.42320058  0.83088243    -0.00160
C1049       C  0.56886009  0.42072575  0.83622842    -0.11880
C1050       C  0.59642429  0.44670644  0.84974150     0.02050
H1051       H  0.56498662  0.49874243  0.86131549     0.15030
H1052       H  0.56988600  0.39892270  0.82909078     0.15030
C1053       C  0.62554204  0.44345993  0.85467152     0.36680
C1054       C  0.50942402  0.45415257  0.83528941     0.36590
N1055       N  0.64884995  0.44085382  0.85860202    -0.43660
N1056       N  0.48591512  0.45649293  0.83168240    -0.43660
C1057       C  0.65520494  0.01856132  0.97994406    -0.00070
C1058       C  0.64916295  0.48601084  0.98460787    -0.11940
C1059       C  0.64086233  0.47172427  0.01087904     0.02170
C1060       C  0.63778244  0.48987440  0.03325930    -0.00160
C1061       C  0.64366515  0.02243158  0.02846924    -0.11880
C1062       C  0.65246627  0.03686960  0.00225544     0.02050
H1063       H  0.65124932  0.47166645  0.96762156     0.15030
H1064       H  0.64167706  0.03695423  0.04534509     0.15030
C1065       C  0.65739833  0.06999891  0.99869941     0.36680
C1066       C  0.63603041  0.43859431  0.01410967     0.36590
N1067       N  0.66129298  0.09653109  0.99583691    -0.43660
N1068       N  0.63229753  0.41208155  0.01665068    -0.43660
C1069       C  0.62755851  0.08451660  0.19372159    -0.00070
C1070       C  0.65313142  0.09304176  0.17423188    -0.11940
C1071       C  0.65568757  0.06829549  0.15982974     0.02170
C1072       C  0.63235326  0.03448548  0.16497185    -0.00160
C1073       C  0.60802036  0.02574034  0.18547513    -0.11880
C1074       C  0.60514910  0.05048546  0.19975738     0.02050
H1075       H  0.67111883  0.11910344  0.17007088     0.15030
H1076       H  0.59024782  0.99955296  0.18938195     0.15030
C1077       C  0.57817519  0.04005742  0.21943846     0.36680
C1078       C  0.68281928  0.07815087  0.14034650     0.36590
N1079       N  0.55655070  0.03174443  0.23519118    -0.43660
N1080       N  0.70465575  0.08600430  0.12487707    -0.43660
C1081       C  0.65027823  0.11989285  0.36145721    -0.00070
C1082       C  0.61710627  0.10189619  0.35135044    -0.11940
C1083       C  0.60758470  0.11176489  0.32743374     0.02170
C1084       C  0.63122726  0.14068680  0.31336918    -0.00160
C1085       C  0.66434421  0.15875168  0.32336099    -0.11880
C1086       C  0.67418024  0.14840438  0.34685973     0.02050
H1087       H  0.59826034  0.08039366  0.36254682     0.15030
H1088       H  0.68291133  0.18053720  0.31226943     0.15030
C1089       C  0.70870789  0.16821294  0.35585218     0.36680
C1090       C  0.57309391  0.09244919  0.31826697     0.36590
N1091       N  0.73641323  0.18414127  0.36296512    -0.43660
N1092       N  0.54544088  0.07704545  0.31092731    -0.43660
C1093       C  0.54489220  0.12568409  0.51755357    -0.00070
C1094       C  0.57816400  0.14903574  0.52458601    -0.11940
C1095       C  0.60450775  0.15112192  0.50893330     0.02170
C1096       C  0.59719102  0.12897418  0.48631604    -0.00160
C1097       C  0.56370924  0.10622244  0.47902720    -0.11880
C1098       C  0.53749276  0.10437174  0.49454430     0.02050
H1099       H  0.58346919  0.16570137  0.54222187     0.15030
H1100       H  0.55795813  0.08891202  0.46181607     0.15030
C1101       C  0.50346860  0.07888712  0.48767173     0.36680
C1102       C  0.63845433  0.17655529  0.51610640     0.36590
N1103       N  0.97630025  0.05820213  0.48226135    -0.43660
N1104       N  0.66562849  0.19706764  0.52174824    -0.43660
C1105       C  0.53403921  0.24085734  0.79022710    -0.00070
C1106       C  0.00344171  0.23138784  0.80385089    -0.11940
C1107       C  0.98783131  0.25064736  0.80211613     0.02170
C1108       C  0.50306597  0.28037291  0.78682862    -0.00160
C1109       C  0.53387180  0.29014798  0.77361210    -0.11880
C1110       C  0.54922365  0.27067300  0.77495387     0.02050
H1111       H  0.99116118  0.20838180  0.81549992     0.15030
H1112       H  0.54601565  0.31316309  0.76195878     0.15030
C1113       C  0.58061819  0.28214120  0.76065513     0.36680
C1114       C  0.95689623  0.23993434  0.81693825     0.36590
N1115       N  0.60577748  0.29139805  0.74915392    -0.43660
N1116       N  0.93213394  0.23133991  0.82888645    -0.43660
C1117       C  0.61961991  0.14182918  0.82616909    -0.00070
C1118       C  0.65475031  0.15600060  0.82536138    -0.11940
C1119       C  0.67095230  0.14338155  0.84204729     0.02170
C1120       C  0.65206783  0.11711155  0.86071409    -0.00160
C1121       C  0.61722897  0.10417349  0.86208174    -0.11880
C1122       C  0.60101469  0.11569507  0.84491831     0.02050
H1123       H  0.66935736  0.17608226  0.81111010     0.15030
H1124       H  0.60208935  0.08368122  0.87588651     0.15030
C1125       C  0.56489501  0.09984279  0.84702616     0.36680
C1126       C  0.70680257  0.15779620  0.83972473     0.36590
N1127       N  0.53596858  0.08670586  0.84891436    -0.43660
N1128       N  0.73558724  0.16937671  0.83786521    -0.43660
C1129       C  0.99768078  0.12825985  0.64843546    -0.00070
C1130       C  0.97688474  0.12681718  0.67011918    -0.11940
C1131       C  0.98902783  0.13454767  0.69725905     0.02170
C1132       C  0.52288970  0.14417675  0.70318799    -0.00160
C1133       C  0.54394434  0.14647365  0.68141069    -0.11880
C1134       C  0.53176262  0.13865207  0.65425941     0.02050
H1135       H  0.95104427  0.11972054  0.66585378     0.15030
H1136       H  0.56996804  0.15422003  0.68560858     0.15030
C1137       C  0.55539763  0.14309389  0.63273881     0.36680
C1138       C  0.96629311  0.13346342  0.71837476     0.36590
N1139       N  0.57442654  0.14682120  0.61553630    -0.43660
N1140       N  0.94808569  0.13264770  0.73526538    -0.43660
C1141       C  0.72576157  0.48298348  0.12189340    -0.00070
C1142       C  0.74711128  0.01077301  0.13878700    -0.11940
C1143       C  0.78211540  0.02543872  0.13773011     0.02170
C1144       C  0.79653377  0.01213381  0.11970898    -0.00160
C1145       C  0.77534062  0.48373248  0.10351217    -0.11880
C1146       C  0.74032674  0.46941293  0.10412120     0.02050
H1147       H  0.73648710  0.02155060  0.15265850     0.15030
H1148       H  0.78626617  0.47312599  0.08977714     0.15030
C1149       C  0.72032450  0.44194687  0.08535327     0.36680
C1150       C  0.80254118  0.05326065  0.15607714     0.36590
N1151       N  0.70436016  0.42008417  0.07015080    -0.43660
N1152       N  0.81889450  0.07544452  0.17088734    -0.43660
C1153       C  0.98563146  0.12129967  0.15272397    -0.00070
C1154       C  0.51657356  0.12858595  0.14121013    -0.11940
C1155       C  0.54619945  0.14296631  0.15701128     0.02170
C1156       C  0.54583518  0.15130444  0.18527698    -0.00160
C1157       C  0.51521929  0.14554810  0.19652755    -0.11880
C1158       C  0.98538641  0.13074026  0.18067808     0.02050
H1159       H  0.51737461  0.12119668  0.12000691     0.15030
H1160       H  0.51423826  0.15130678  0.21815612     0.15030
C1161       C  0.95460566  0.12347503  0.19433633     0.36680
C1162       C  0.57573766  0.14564170  0.14408113     0.36590
N1163       N  0.92995001  0.11757249  0.20538619    -0.43660
N1164       N  0.59920799  0.14736294  0.13371737    -0.43660
C1165       C  0.78867940  0.49681746  0.89628460    -0.00070
C1166       C  0.79507933  0.02394378  0.91385175    -0.11940
C1167       C  0.77620719  0.03993607  0.91227168     0.02170
C1168       C  0.75015785  0.02905523  0.89257243    -0.00160
C1169       C  0.74419719  0.50231192  0.87460241    -0.11880
C1170       C  0.76300821  0.48618770  0.87631930     0.02050
H1171       H  0.81488141  0.03265796  0.92921360     0.15030
H1172       H  0.72425261  0.49341411  0.85936612     0.15030
C1173       C  0.75578193  0.45934625  0.85698401     0.36680
C1174       C  0.78374652  0.06678454  0.93169501     0.36590
N1175       N  0.74995213  0.43786911  0.84142362    -0.43660
N1176       N  0.78984755  0.08824418  0.94735075    -0.43660
C1177       C  0.87300896  0.39664498  0.85442171    -0.00070
C1178       C  0.88958452  0.41213670  0.82994234    -0.11940
C1179       C  0.90258427  0.39746325  0.81206896     0.02170
C1180       C  0.89976172  0.36632648  0.81861136    -0.00160
C1181       C  0.88181797  0.35001605  0.84267350    -0.11880
C1182       C  0.86817605  0.36474100  0.86035241     0.02050
H1183       H  0.89361067  0.43676743  0.82524905     0.15030
H1184       H  0.87952447  0.32634294  0.84825664     0.15030
C1185       C  0.85133438  0.34778883  0.88526883     0.36680
C1186       C  0.92118945  0.41672242  0.78842449     0.36590
N1187       N  0.83774712  0.33420448  0.90525849    -0.43660
N1188       N  0.93626793  0.43241071  0.76965479    -0.43660
C1189       C  0.91934795  0.04297067  0.85390013    -0.00070
C1190       C  0.94060922  0.07306452  0.86791497    -0.11940
C1191       C  0.96719417  0.09952508  0.85438041     0.02170
C1192       C  0.97289445  0.09563557  0.82628989    -0.00160
C1193       C  0.94997146  0.06642248  0.81180996    -0.11880
C1194       C  0.92315841  0.04010230  0.82533846     0.02050
H1195       H  0.93710228  0.07551740  0.88980567     0.15030
H1196       H  0.95360829  0.06356860  0.79002791     0.15030
C1197       C  0.90154144  0.00987650  0.80976301     0.36680
C1198       C  0.98868107  0.12951574  0.87026556     0.36590
N1199       N  0.88425968  0.98576084  0.79716597    -0.43660
N1200       N  0.00575827  0.15349864  0.88308688    -0.43660
C1201       C  0.87688380  0.48402504  0.98299686    -0.00070
C1202       C  0.85312990  0.49015152  0.99588956    -0.11940
C1203       C  0.86064118  0.00859472  0.02066875     0.02170
C1204       C  0.89221525  0.02057315  0.03348255    -0.00160
C1205       C  0.91574800  0.01394720  0.02087982    -0.11880
C1206       C  0.90866215  0.99650036  0.99561741     0.02050
H1207       H  0.82900655  0.48159398  0.98604412     0.15030
H1208       H  0.93980353  0.02247001  0.03082668     0.15030
C1209       C  0.93440954  0.99161634  0.98321166     0.36680
C1210       C  0.83505965  0.01391011  0.03288281     0.36590
N1211       N  0.95513729  0.98787245  0.97322864    -0.43660
N1212       N  0.81454423  0.51822916  0.04254317    -0.43660
C1213       C  0.72717140  0.23228605  0.23097611    -0.00070
C1214       C  0.73984838  0.26051100  0.21423520    -0.11940
C1215       C  0.77458531  0.28236391  0.21175281     0.02170
C1216       C  0.79745133  0.27673180  0.22701901    -0.00160
C1217       C  0.78463730  0.24819978  0.24350328    -0.11880
C1218       C  0.74996723  0.22599666  0.24548669     0.02050
H1219       H  0.72259758  0.26493210  0.20237566     0.15030
H1220       H  0.80169213  0.24360363  0.25546131     0.15030
C1221       C  0.73851052  0.19748987  0.26331677     0.36680
C1222       C  0.78582128  0.30950950  0.19250558     0.36590
N1223       N  0.72948239  0.17463927  0.27755845    -0.43660
N1224       N  0.79453741  0.33094510  0.17679713    -0.43660
C1225       C  0.53634205  0.39732659  0.15211694    -0.00070
C1226       C  0.52438955  0.36475133  0.16216533    -0.11940
C1227       C  0.99657019  0.34972209  0.18028794     0.02170
C1228       C  0.98137539  0.36794916  0.18961467    -0.00160
C1229       C  0.99348380  0.40038712  0.17973271    -0.11880
C1230       C  0.52016781  0.41494476  0.16104344     0.02050
H1231       H  0.53665546  0.35103569  0.15581033     0.15030
H1232       H  0.98171978  0.41446930  0.18655121     0.15030
C1233       C  0.53124287  0.44876619  0.15242286     0.36680
C1234       C  0.98460664  0.31610190  0.18960493     0.36590
N1235       N  0.53990383  0.47580050  0.14554298    -0.43660
N1236       N  0.97491408  0.28908621  0.19707851    -0.43660
C1237       C  0.89859368  0.42675448  0.19501859    -0.00070
C1238       C  0.86891099  0.42017213  0.18173531    -0.11940
C1239       C  0.86756367  0.44535980  0.16751231     0.02170
C1240       C  0.89639885  0.47731659  0.16647004    -0.00160
C1241       C  0.92581435  0.48428661  0.18022983    -0.11880
C1242       C  0.92714279  0.45915376  0.19462175     0.02050
H1243       H  0.84684776  0.39537527  0.18246387     0.15030
H1244       H  0.94800468  0.50898624  0.17888599     0.15030
C1245       C  0.95856363  0.46664922  0.20718833     0.36680
C1246       C  0.83664637  0.43786963  0.15390951     0.36590
N1247       N  0.98374299  0.47253405  0.21717817    -0.43660
N1248       N  0.81183686  0.43188276  0.14312656    -0.43660
C1249       C  0.73508206  0.22102885  0.44988269    -0.00070
C1250       C  0.75760071  0.23440560  0.47214423    -0.11940
C1251       C  0.77822280  0.26918680  0.47579976     0.02170
C1252       C  0.77691147  0.29141262  0.45667080    -0.00160
C1253       C  0.75387917  0.27805482  0.43480177    -0.11880
C1254       C  0.73315876  0.24337230  0.43120497     0.02050
H1255       H  0.75869466  0.21767362  0.48702372     0.15030
H1256       H  0.75293893  0.29473553  0.41976871     0.15030
C1257       C  0.71110576  0.23164399  0.40746423     0.36680
C1258       C  0.79990557  0.28133752  0.49974525     0.36590
N1259       N  0.69348123  0.22248529  0.38841916    -0.43660
N1260       N  0.81715803  0.29109179  0.51900496    -0.43660
C1261       C  0.89924127  0.03654169  0.52568267    -0.00070
C1262       C  0.88537492  0.00484237  0.53776538    -0.11940
C1263       C  0.86983392  0.47523038  0.52170528     0.02170
C1264       C  0.86778526  0.47665477  0.49260389    -0.00160
C1265       C  0.88072132  0.00825519  0.48054067    -0.11880
C1266       C  0.89603540  0.03792188  0.49665956     0.02050
H1267       H  0.88800669  0.00317736  0.55983099     0.15030
H1268       H  0.87996409  0.00987981  0.45827080     0.15030
C1269       C  0.91059833  0.06942778  0.48242786     0.36680
C1270       C  0.85919809  0.44397157  0.53553032     0.36590
N1271       N  0.92243591  0.09463299  0.47092826    -0.43660
N1272       N  0.85094447  0.41899650  0.54663318    -0.43660
C1273       C  0.88746143  0.36519700  0.31707363    -0.00070
C1274       C  0.91325699  0.39122006  0.33253483    -0.11940
C1275       C  0.90689861  0.40043740  0.35856940     0.02170
C1276       C  0.87378534  0.38411007  0.36927950    -0.00160
C1277       C  0.84787589  0.35841074  0.35341366    -0.11880
C1278       C  0.85447615  0.34878877  0.32762121     0.02050
H1279       H  0.93846970  0.40453798  0.32412972     0.15030
H1280       H  0.82244445  0.34535196  0.36136078     0.15030
C1281       C  0.82675061  0.32306003  0.31177371     0.36680
C1282       C  0.93486732  0.42709065  0.37351496     0.36590
N1283       N  0.80451252  0.30255297  0.29902946    -0.43660
N1284       N  0.95738894  0.44837861  0.38545899    -0.43660
C1285       C  0.53143159  0.29316086  0.55794290    -0.00070
C1286       C  0.54530477  0.28060024  0.57672869    -0.11940
C1287       C  0.53170437  0.24602836  0.57975178     0.02170
C1288       C  0.50348258  0.22314343  0.56390272    -0.00160
C1289       C  0.98954030  0.23544000  0.54511278    -0.11880
C1290       C  0.50336302  0.27002166  0.54174893     0.02050
H1291       H  0.56633041  0.29777765  0.58962693     0.15030
H1292       H  0.96839747  0.21797444  0.53243234     0.15030
C1293       C  0.98835978  0.28073623  0.52113931     0.36680
C1294       C  0.54637164  0.23459201  0.60008033     0.36590
N1295       N  0.97630368  0.28918706  0.50455167    -0.43660
N1296       N  0.55795363  0.22531169  0.61640433    -0.43660
C1297       C  0.62834670  0.48101057  0.52630956    -0.00070
C1298       C  0.62649044  0.00929177  0.53457416    -0.11940
C1299       C  0.63825399  0.03740249  0.51769588     0.02170
C1300       C  0.65353203  0.03859270  0.49203657    -0.00160
C1301       C  0.65776883  0.01153590  0.48445133    -0.11880
C1302       C  0.64504343  0.48275617  0.50113854     0.02050
H1303       H  0.61383609  0.00876413  0.55363743     0.15030
H1304       H  0.66914631  0.01196498  0.46472864     0.15030
C1305       C  0.64828653  0.45496717  0.49130454     0.36680
C1306       C  0.63298372  0.06430622  0.52677752     0.36590
N1307       N  0.65088505  0.43269402  0.48332639    -0.43660
N1308       N  0.62853324  0.08569210  0.53402969    -0.43660
C1309       C  0.98165580  0.39411823  0.52304232    -0.00070
C1310       C  0.96799177  0.37226345  0.50025527    -0.11940
C1311       C  0.94062842  0.36956989  0.48598854     0.02170
C1312       C  0.92679857  0.38926393  0.49445931    -0.00160
C1313       C  0.93977078  0.41048214  0.51755870    -0.11880
C1314       C  0.96713786  0.41320368  0.53189498     0.02050
H1315       H  0.97839150  0.35686123  0.49372442     0.15030
H1316       H  0.92902868  0.42562334  0.52400057     0.15030
C1317       C  0.97999173  0.43629301  0.55507032     0.36680
C1318       C  0.92647380  0.34550673  0.46351761     0.36590
N1319       N  0.99020257  0.45481529  0.57362686    -0.43660
N1320       N  0.91501640  0.32610852  0.44562782    -0.43660
C1321       C  0.52678969  0.37956775  0.64634369    -0.00070
C1322       C  0.99249132  0.36854886  0.65085997    -0.11940
C1323       C  0.97862879  0.36163743  0.67744763     0.02170
C1324       C  0.99925210  0.36624028  0.70032600    -0.00160
C1325       C  0.53341406  0.37713219  0.69595508    -0.11880
C1326       C  0.54719124  0.38336688  0.66934892     0.02050
H1327       H  0.97624715  0.36523411  0.63353266     0.15030
H1328       H  0.54941042  0.38037986  0.71347286     0.15030
C1329       C  0.58218752  0.39338701  0.66646600     0.36680
C1330       C  0.94358075  0.35120614  0.68079527     0.36590
N1331       N  0.61021152  0.40124048  0.66424291    -0.43660
N1332       N  0.91550677  0.34292553  0.68351559    -0.43660
In1333     In  0.55752448  0.89276713  0.56440228     1.36870
C1334       C  0.54392526  0.82980856  0.55802412     0.77670
O1335       O  0.56883481  0.89312096  0.61007887    -0.60780
O1336       O  0.52097891  0.88422763  0.59777818    -0.51690
C1337       C  0.60798917  0.94929120  0.54228042     0.70330
O1338       O  0.60061360  0.92048199  0.53374408    -0.46550
C1339       C  0.00998268  0.89515044  0.53749504     0.75040
O1340       O  0.56994122  0.85154520  0.57088371    -0.58410
O1341       O  0.01947725  0.90807572  0.56119735    -0.48500
O1342       O  0.52771212  0.84150371  0.54668931    -0.54840
C1343       C  0.53956789  0.88606520  0.61743705     0.85220
O1344       O  0.59336033  0.94867426  0.56445917    -0.56730
O1345       O  0.52584604  0.88191679  0.52735909    -0.60020
In1346     In  0.85224373  0.89084502  0.45118422     1.36870
C1347       C  0.80206913  0.82780013  0.45679676     0.77670
O1348       O  0.83681188  0.88184765  0.40615706    -0.60780
O1349       O  0.88831100  0.90292614  0.41645445    -0.51690
C1350       C  0.85737001  0.94628500  0.47472123     0.70330
O1351       O  0.83587763  0.91707138  0.48192774    -0.46550
C1352       C  0.89977669  0.88925945  0.47908766     0.75040
O1353       O  0.79788710  0.84967087  0.44493427    -0.58410
O1354       O  0.89712795  0.88540937  0.45328578    -0.48500
O1355       O  0.83074121  0.83902619  0.46713591    -0.54840
C1356       C  0.86616260  0.89058034  0.39784018     0.85220
O1357       O  0.87197751  0.94707226  0.45245445    -0.56730
O1358       O  0.87777863  0.89363188  0.49066884    -0.60020
In1359     In  0.89801663  0.84964396  0.23446788     1.36870
C1360       C  0.83405725  0.80158408  0.22817071     0.77670
O1361       O  0.88984570  0.83189956  0.27892363    -0.60780
O1362       O  0.90326699  0.88209505  0.27072693    -0.51690
C1363       C  0.95233237  0.85498647  0.20884063     0.70330
O1364       O  0.92300132  0.83245323  0.20232913    -0.46550
C1365       C  0.89897027  0.89928874  0.20888402     0.75040
O1366       O  0.85600882  0.79550005  0.23769794    -0.58410
O1367       O  0.91376231  0.90322096  0.23159776    -0.48500
O1368       O  0.84554042  0.83142435  0.22096530    -0.54840
C1369       C  0.89427423  0.85950341  0.28832414     0.85220
O1370       O  0.95383328  0.87004563  0.23102831    -0.56730
O1371       O  0.88375444  0.86980386  0.19919766    -0.60020
In1372     In  0.85698820  0.96361772  0.90089228     1.36870
C1373       C  0.81122520  0.98261619  0.89837767     0.77670
O1374       O  0.84067109  0.95067165  0.94518932    -0.60780
O1375       O  0.89257627  0.98142991  0.93634270    -0.51690
C1376       C  0.86602017  0.91741149  0.87414483     0.70330
O1377       O  0.83756981  0.90969314  0.88419823    -0.46550
C1378       C  0.89620202  0.51437266  0.87036956     0.75040
O1379       O  0.80508088  0.95436198  0.88878764    -0.58410
O1380       O  0.90296619  0.51184794  0.89509330    -0.48500
O1381       O  0.83943300  0.49923840  0.90984144    -0.54840
C1382       C  0.86993376  0.97044276  0.95437857     0.85220
O1383       O  0.88892517  0.94656981  0.88021062    -0.56730
O1384       O  0.86890011  0.99048420  0.86108759    -0.60020
In1385     In  0.89828872  0.54640244  0.11524563     1.36870
C1386       C  0.95416386  0.59887423  0.13662860     0.77670
O1387       O  0.89167851  0.52484783  0.15706944    -0.60780
O1388       O  0.90400660  0.00283801  0.12332672    -0.51690
C1389       C  0.83321431  0.52570135  0.11829311     0.70330
O1390       O  0.85524615  0.55667190  0.11917692    -0.46550
C1391       C  0.89885696  0.53470564  0.06187085     0.75040
O1392       O  0.92505287  0.59207032  0.14376631    -0.58410
O1393       O  0.91195935  0.52511898  0.07961775    -0.48500
O1394       O  0.95421829  0.58234968  0.11576233    -0.54840
C1395       C  0.89752872  0.00249599  0.14858255     0.85220
O1396       O  0.84476825  0.50634295  0.11582048    -0.56730
O1397       O  0.88954400  0.55455639  0.07096293    -0.60020
In1398     In  0.55524038  0.66452525  0.78450239     1.36870
C1399       C  0.54689076  0.71712777  0.79034740     0.77670
O1400       O  0.56689272  0.66971515  0.73836971    -0.60780
O1401       O  0.51681812  0.63901882  0.75206805    -0.51690
C1402       C  0.60146553  0.65280312  0.80745283     0.70330
O1403       O  0.60522334  0.68181873  0.80749908    -0.46550
C1404       C  0.00297504  0.62041074  0.81172459     0.75040
O1405       O  0.56691432  0.71665871  0.77263236    -0.58410
O1406       O  0.00999433  0.61464543  0.78783519    -0.48500
O1407       O  0.53581566  0.69344196  0.80711864    -0.54840
C1408       C  0.53614528  0.65125480  0.73186132     0.85220
O1409       O  0.57753571  0.63207699  0.79257931    -0.56730
O1410       O  0.52370674  0.64870767  0.82192715    -0.60020
In1411     In  0.97232393  0.62225340  0.56674205     1.36870
C1412       C  0.99086270  0.68677679  0.56471359     0.77670
O1413       O  0.96101296  0.62619707  0.61162941    -0.60780
O1414       O  0.49732938  0.61246311  0.60110297    -0.51690
C1415       C  0.92118082  0.56716353  0.54291133     0.70330
O1416       O  0.92950363  0.59651200  0.53593455    -0.46550
C1417       C  0.51842064  0.62368412  0.53487332     0.75040
O1418       O  0.96009245  0.66423465  0.56569085    -0.58410
O1419       O  0.51790669  0.61894477  0.56039778    -0.48500
O1420       O  0.51093610  0.67600539  0.56427122    -0.54840
C1421       C  0.98441608  0.62147699  0.61977232     0.85220
O1422       O  0.93551102  0.56619414  0.56472645    -0.56730
O1423       O  0.49498449  0.62717098  0.52546538    -0.60020
In1424     In  0.66726312  0.61870704  0.44374175     1.36870
C1425       C  0.71222134  0.68416569  0.44753484     0.78030
O1426       O  0.68587015  0.62311662  0.39983297    -0.60780
O1427       O  0.63356655  0.59951650  0.40714865    -0.51690
C1428       C  0.65975712  0.56545658  0.47207803     0.70330
O1429       O  0.68776471  0.58595529  0.46129712    -0.46550
C1430       C  0.62331941  0.62701378  0.47089921     0.75040
O1431       O  0.71829047  0.66242895  0.45733325    -0.58410
O1432       O  0.61790513  0.61444074  0.44691512    -0.48500
O1433       O  0.68407586  0.67199488  0.43597626    -0.54840
C1434       C  0.65692013  0.61281996  0.38984806     0.85220
O1435       O  0.63652915  0.57081541  0.46605287    -0.56730
O1436       O  0.65190550  0.63592888  0.48094316    -0.60020
In1437     In  0.62570164  0.66202027  0.23276538     1.36870
C1438       C  0.69055084  0.70821660  0.23135218     0.77670
O1439       O  0.63663221  0.67889631  0.27736107    -0.60780
O1440       O  0.60798587  0.62676059  0.26790477    -0.51690
C1441       C  0.57555256  0.66113988  0.20376298     0.70330
O1442       O  0.60467999  0.67178660  0.19457481    -0.46550
C1443       C  0.62558851  0.61185868  0.20732548     0.75040
O1444       O  0.66806521  0.71640507  0.23145108    -0.58410
O1445       O  0.60863906  0.60801977  0.22879646    -0.48500
O1446       O  0.67946493  0.67719959  0.23145274    -0.54840
C1447       C  0.62405319  0.64916834  0.28585597     0.85220
O1448       O  0.57349275  0.65648789  0.22950269    -0.56730
O1449       O  0.64170859  0.64140026  0.19858767    -0.60020
In1450     In  0.67409071  0.55084922  0.89892770     1.36870
C1451       C  0.72588727  0.54139764  0.89243030     0.77670
O1452       O  0.67986316  0.56211395  0.94505796    -0.60780
O1453       O  0.65156036  0.51166997  0.93095368    -0.51690
C1454       C  0.66570111  0.59930863  0.87704516     0.70330
O1455       O  0.68931929  0.59477633  0.86931491    -0.46550
C1456       C  0.62315035  0.00273546  0.87269474     0.75040
O1457       O  0.72773626  0.56455115  0.90800899    -0.58410
O1458       O  0.61951805  0.01546329  0.89462970    -0.48500
O1459       O  0.69969112  0.52705491  0.87787496    -0.54840
C1460       C  0.66253658  0.53143079  0.95133678     0.85220
O1461       O  0.65110350  0.58342612  0.89842055    -0.56730
O1462       O  0.65277469  0.51520559  0.86390501    -0.60020
In1463     In  0.62713680  0.96116279  0.11510205     1.36870
C1464       C  0.68936231  0.97192668  0.12133539     0.77670
O1465       O  0.62827372  0.94982487  0.06960244    -0.60780
O1466       O  0.62835541  0.99406301  0.08149728    -0.51690
C1467       C  0.56733472  0.91456695  0.13480530     0.70330
O1468       O  0.59367727  0.91337273  0.13934818    -0.46550
C1469       C  0.63087385  0.50814756  0.14745444     0.75040
O1470       O  0.66672688  0.94597244  0.10907189    -0.58410
O1471       O  0.63297927  0.51088172  0.12156634    -0.48500
O1472       O  0.67891998  0.48965752  0.13222243    -0.54840
C1473       C  0.63076325  0.97710899  0.06204961     0.85220
O1474       O  0.57089598  0.93523901  0.11656744    -0.56730
O1475       O  0.62705531  0.98118271  0.15698203    -0.60020
In1476     In  0.97116996  0.84918118  0.78206462     1.36870
C1477       C  0.98967070  0.80350332  0.78571258     0.77670
O1478       O  0.95864005  0.83643510  0.73666056    -0.60780
O1479       O  0.50486966  0.87963269  0.74836945    -0.51690
C1480       C  0.91987436  0.85398190  0.80321935     0.70330
O1481       O  0.92931601  0.83520258  0.81369461    -0.46550
C1482       C  0.51396962  0.89688655  0.81433316     0.75040
O1483       O  0.95872963  0.79484838  0.78540305    -0.58410
O1484       O  0.50370526  0.90296466  0.79232213    -0.48500
O1485       O  0.50961030  0.83452411  0.78466302    -0.54840
C1486       C  0.98676715  0.86068172  0.72909145     0.85220
O1487       O  0.93230105  0.86462484  0.77973835    -0.56730
O1488       O  0.50144839  0.86646155  0.82024762    -0.60020
C1489       C  0.59493623  0.97502005  0.85864329    -0.00070
C1490       C  0.56598733  0.97693148  0.85420692    -0.11940
C1491       C  0.53879470  0.95133671  0.83993609     0.02170
C1492       C  0.54041510  0.92320057  0.83088245    -0.00160
C1493       C  0.56886008  0.92072575  0.83622842    -0.11880
C1494       C  0.59642428  0.94670644  0.84974150     0.02050
H1495       H  0.56498660  0.99874241  0.86131551     0.15030
H1496       H  0.56988600  0.89892270  0.82909078     0.15030
C1497       C  0.62554204  0.94345994  0.85467151     0.36680
C1498       C  0.50942399  0.95415254  0.83528944     0.36590
N1499       N  0.64884996  0.94085383  0.85860200    -0.43660
N1500       N  0.48591508  0.95649289  0.83168244    -0.43660
C1501       C  0.65520493  0.51856131  0.97994407    -0.00070
C1502       C  0.64916294  0.98601084  0.98460786    -0.11940
C1503       C  0.64086232  0.97172428  0.01087903     0.02170
C1504       C  0.63778244  0.98987441  0.03325929    -0.00160
C1505       C  0.64366514  0.52243157  0.02846925    -0.11880
C1506       C  0.65246626  0.53686959  0.00225545     0.02050
H1507       H  0.65124931  0.97166645  0.96762155     0.15030
H1508       H  0.64167704  0.53695421  0.04534509     0.15030
C1509       C  0.65739831  0.56999889  0.99869942     0.36680
C1510       C  0.63603039  0.93859431  0.01410966     0.36590
N1511       N  0.66129294  0.59653107  0.99583692    -0.43660
N1512       N  0.63229750  0.91208155  0.01665067    -0.43660
C1513       C  0.62755851  0.58451660  0.19372159    -0.00070
C1514       C  0.65313142  0.59304176  0.17423187    -0.11940
C1515       C  0.65568757  0.56829550  0.15982973     0.02170
C1516       C  0.63235326  0.53448549  0.16497185    -0.00160
C1517       C  0.60802036  0.52574035  0.18547513    -0.11880
C1518       C  0.60514910  0.55048547  0.19975737     0.02050
H1519       H  0.67111883  0.61910345  0.17007087     0.15030
H1520       H  0.59024782  0.49955297  0.18938194     0.15030
C1521       C  0.57817519  0.54005742  0.21943846     0.36680
C1522       C  0.68281927  0.57815087  0.14034649     0.36590
N1523       N  0.55655070  0.53174443  0.23519118    -0.43660
N1524       N  0.70465575  0.58600430  0.12487706    -0.43660
C1525       C  0.65027824  0.61989285  0.36145720    -0.00070
C1526       C  0.61710628  0.60189618  0.35135043    -0.11940
C1527       C  0.60758471  0.61176489  0.32743373     0.02170
C1528       C  0.63122726  0.64068680  0.31336917    -0.00160
C1529       C  0.66434421  0.65875169  0.32336099    -0.11880
C1530       C  0.67418024  0.64840439  0.34685973     0.02050
H1531       H  0.59826035  0.58039366  0.36254681     0.15030
H1532       H  0.68291134  0.68053721  0.31226943     0.15030
C1533       C  0.70870789  0.66821295  0.35585218     0.36680
C1534       C  0.57309392  0.59244918  0.31826696     0.36590
N1535       N  0.73641323  0.68414129  0.36296512    -0.43660
N1536       N  0.54544089  0.57704544  0.31092730    -0.43660
C1537       C  0.54489220  0.62568409  0.51755357    -0.00070
C1538       C  0.57816400  0.64903573  0.52458602    -0.11940
C1539       C  0.60450775  0.65112191  0.50893331     0.02170
C1540       C  0.59719102  0.62897418  0.48631603    -0.00160
C1541       C  0.56370924  0.60622245  0.47902719    -0.11880
C1542       C  0.53749276  0.60437175  0.49454429     0.02050
H1543       H  0.58346919  0.66570136  0.54222188     0.15030
H1544       H  0.55795813  0.58891203  0.46181606     0.15030
C1545       C  0.50346860  0.57888714  0.48767171     0.36680
C1546       C  0.63845433  0.67655527  0.51610641     0.36590
N1547       N  0.97630025  0.55820209  0.48226138    -0.43660
N1548       N  0.66562849  0.69706762  0.52174826    -0.43660
C1549       C  0.53403921  0.74085733  0.79022710    -0.00070
C1550       C  0.00344171  0.73138783  0.80385088    -0.11940
C1551       C  0.98783131  0.75064735  0.80211612     0.02170
C1552       C  0.50306597  0.78037291  0.78682862    -0.00160
C1553       C  0.53387180  0.79014798  0.77361211    -0.11880
C1554       C  0.54922366  0.77067300  0.77495388     0.02050
H1555       H  0.99116117  0.70838178  0.81549990     0.15030
H1556       H  0.54601565  0.81316310  0.76195879     0.15030
C1557       C  0.58061819  0.78214120  0.76065514     0.36680
C1558       C  0.95689622  0.73993432  0.81693823     0.36590
N1559       N  0.60577749  0.79139805  0.74915393    -0.43660
N1560       N  0.93213393  0.73133989  0.82888642    -0.43660
C1561       C  0.61961990  0.64182916  0.82616910    -0.00070
C1562       C  0.65475031  0.65600059  0.82536140    -0.11940
C1563       C  0.67095229  0.64338154  0.84204731     0.02170
C1564       C  0.65206781  0.61711153  0.86071410    -0.00160
C1565       C  0.61722895  0.60417347  0.86208174    -0.11880
C1566       C  0.60101468  0.61569505  0.84491830     0.02050
H1567       H  0.66935735  0.67608226  0.81111012     0.15030
H1568       H  0.60208934  0.58368119  0.87588651     0.15030
C1569       C  0.56489500  0.59984276  0.84702615     0.36680
C1570       C  0.70680256  0.65779620  0.83972476     0.36590
N1571       N  0.53596857  0.58670583  0.84891435    -0.43660
N1572       N  0.73558724  0.66937673  0.83786525    -0.43660
C1573       C  0.99768078  0.62825985  0.64843545    -0.00070
C1574       C  0.97688474  0.62681717  0.67011917    -0.11940
C1575       C  0.98902783  0.63454766  0.69725905     0.02170
C1576       C  0.52288971  0.64417674  0.70318799    -0.00160
C1577       C  0.54394434  0.64647364  0.68141069    -0.11880
C1578       C  0.53176263  0.63865207  0.65425941     0.02050
H1579       H  0.95104426  0.61972053  0.66585378     0.15030
H1580       H  0.56996804  0.65422001  0.68560858     0.15030
C1581       C  0.55539763  0.64309387  0.63273881     0.36680
C1582       C  0.96629311  0.63346340  0.71837476     0.36590
N1583       N  0.57442654  0.64682118  0.61553630    -0.43660
N1584       N  0.94808569  0.63264767  0.73526538    -0.43660
C1585       C  0.72576156  0.98298349  0.12189338    -0.00070
C1586       C  0.74711129  0.51077301  0.13878702    -0.11940
C1587       C  0.78211540  0.52543872  0.13773012     0.02170
C1588       C  0.79653377  0.51213381  0.11970900    -0.00160
C1589       C  0.77534062  0.98373249  0.10351216    -0.11880
C1590       C  0.74032673  0.96941294  0.10412119     0.02050
H1591       H  0.73648710  0.52155060  0.15265852     0.15030
H1592       H  0.78626616  0.97312599  0.08977712     0.15030
C1593       C  0.72032449  0.94194687  0.08535326     0.36680
C1594       C  0.80254118  0.55326065  0.15607716     0.36590
N1595       N  0.70436015  0.92008417  0.07015079    -0.43660
N1596       N  0.81889449  0.57544452  0.17088736    -0.43660
C1597       C  0.98563146  0.62129967  0.15272397    -0.00070
C1598       C  0.51657356  0.62858594  0.14121013    -0.11940
C1599       C  0.54619945  0.64296629  0.15701128     0.02170
C1600       C  0.54583518  0.65130444  0.18527697    -0.00160
C1601       C  0.51521930  0.64554811  0.19652755    -0.11880
C1602       C  0.98538641  0.63074027  0.18067808     0.02050
H1603       H  0.51737461  0.62119666  0.12000691     0.15030
H1604       H  0.51423827  0.65130680  0.21815611     0.15030
C1605       C  0.95460566  0.62347504  0.19433633     0.36680
C1606       C  0.57573765  0.64564167  0.14408114     0.36590
N1607       N  0.92995001  0.61757250  0.20538619    -0.43660
N1608       N  0.59920798  0.64736290  0.13371738    -0.43660
C1609       C  0.78867938  0.99681745  0.89628460    -0.00070
C1610       C  0.79507935  0.52394380  0.91385175    -0.11940
C1611       C  0.77620720  0.53993608  0.91227168     0.02170
C1612       C  0.75015786  0.52905523  0.89257243    -0.00160
C1613       C  0.74419718  0.00231192  0.87460240    -0.11880
C1614       C  0.76300820  0.98618769  0.87631930     0.02050
H1615       H  0.81488143  0.53265798  0.92921360     0.15030
H1616       H  0.72425261  0.99341411  0.85936611     0.15030
C1617       C  0.75578192  0.95934624  0.85698400     0.36680
C1618       C  0.78374653  0.56678456  0.93169501     0.36590
N1619       N  0.74995212  0.93786911  0.84142361    -0.43660
N1620       N  0.78984756  0.58824420  0.94735075    -0.43660
C1621       C  0.87300895  0.89664497  0.85442171    -0.00070
C1622       C  0.88958451  0.91213669  0.82994233    -0.11940
C1623       C  0.90258426  0.89746323  0.81206896     0.02170
C1624       C  0.89976172  0.86632648  0.81861136    -0.00160
C1625       C  0.88181798  0.85001605  0.84267350    -0.11880
C1626       C  0.86817606  0.86474100  0.86035241     0.02050
H1627       H  0.89361065  0.93676741  0.82524904     0.15030
H1628       H  0.87952449  0.82634295  0.84825665     0.15030
C1629       C  0.85133440  0.84778883  0.88526884     0.36680
C1630       C  0.92118943  0.91672240  0.78842447     0.36590
N1631       N  0.83774715  0.83420450  0.90525851    -0.43660
N1632       N  0.93626789  0.93241068  0.76965477    -0.43660
C1633       C  0.91934798  0.54297067  0.85390014    -0.00070
C1634       C  0.94060926  0.57306452  0.86791498    -0.11940
C1635       C  0.96719420  0.59952508  0.85438042     0.02170
C1636       C  0.97289447  0.59563557  0.82628989    -0.00160
C1637       C  0.94997148  0.56642249  0.81180996    -0.11880
C1638       C  0.92315842  0.54010230  0.82533847     0.02050
H1639       H  0.93710232  0.57551739  0.88980569     0.15030
H1640       H  0.95360829  0.56356860  0.79002791     0.15030
C1641       C  0.90154145  0.50987651  0.80976302     0.36680
C1642       C  0.98868112  0.62951573  0.87026557     0.36590
N1643       N  0.88425968  0.48576085  0.79716598    -0.43660
N1644       N  0.00575833  0.65349862  0.88308690    -0.43660
C1645       C  0.87688380  0.98402504  0.98299686    -0.00070
C1646       C  0.85312990  0.99015151  0.99588955    -0.11940
C1647       C  0.86064119  0.50859472  0.02066875     0.02170
C1648       C  0.89221525  0.52057316  0.03348256    -0.00160
C1649       C  0.91574800  0.51394721  0.02087983    -0.11880
C1650       C  0.90866215  0.49650037  0.99561742     0.02050
H1651       H  0.82900655  0.98159397  0.98604412     0.15030
H1652       H  0.93980353  0.52247001  0.03082669     0.15030
C1653       C  0.93440954  0.49161633  0.98321168     0.36680
C1654       C  0.83505965  0.51391012  0.03288282     0.36590
N1655       N  0.95513728  0.48787243  0.97322865    -0.43660
N1656       N  0.81454422  0.01822915  0.04254316    -0.43660
C1657       C  0.72717140  0.73228606  0.23097611    -0.00070
C1658       C  0.73984838  0.76051102  0.21423521    -0.11940
C1659       C  0.77458531  0.78236393  0.21175282     0.02170
C1660       C  0.79745133  0.77673183  0.22701902    -0.00160
C1661       C  0.78463730  0.74819980  0.24350328    -0.11880
C1662       C  0.74996724  0.72599668  0.24548669     0.02050
H1663       H  0.72259758  0.76493212  0.20237566     0.15030
H1664       H  0.80169214  0.74360365  0.25546131     0.15030
C1665       C  0.73851052  0.69748988  0.26331677     0.36680
C1666       C  0.78582128  0.80950953  0.19250559     0.36590
N1667       N  0.72948240  0.67463928  0.27755845    -0.43660
N1668       N  0.79453741  0.83094512  0.17679714    -0.43660
C1669       C  0.53634205  0.89732660  0.15211692    -0.00070
C1670       C  0.52438954  0.86475133  0.16216531    -0.11940
C1671       C  0.99657019  0.84972208  0.18028794     0.02170
C1672       C  0.98137539  0.86794915  0.18961467    -0.00160
C1673       C  0.99348379  0.90038711  0.17973271    -0.11880
C1674       C  0.52016782  0.91494477  0.16104343     0.02050
H1675       H  0.53665544  0.85103569  0.15581030     0.15030
H1676       H  0.98171977  0.91446928  0.18655121     0.15030
C1677       C  0.53124288  0.94876620  0.15242286     0.36680
C1678       C  0.98460664  0.81610189  0.18960493     0.36590
N1679       N  0.53990384  0.97580052  0.14554298    -0.43660
N1680       N  0.97491409  0.78908620  0.19707851    -0.43660
C1681       C  0.89859365  0.92675449  0.19501862    -0.00070
C1682       C  0.86891095  0.92017215  0.18173535    -0.11940
C1683       C  0.86756364  0.94535982  0.16751234     0.02170
C1684       C  0.89639884  0.97731660  0.16647005    -0.00160
C1685       C  0.92581434  0.98428660  0.18022983    -0.11880
C1686       C  0.92714277  0.95915376  0.19462175     0.02050
H1687       H  0.84684772  0.89537529  0.18246392     0.15030
H1688       H  0.94800468  0.00898622  0.17888596     0.15030
C1689       C  0.95856361  0.96664920  0.20718832     0.36680
C1690       C  0.83664634  0.93786966  0.15390956     0.36590
N1691       N  0.98374297  0.97253402  0.21717816    -0.43660
N1692       N  0.81183683  0.93188279  0.14312662    -0.43660
C1693       C  0.73508206  0.72102884  0.44988269    -0.00070
C1694       C  0.75760072  0.73440560  0.47214422    -0.11940
C1695       C  0.77822281  0.76918680  0.47579976     0.02170
C1696       C  0.77691147  0.79141262  0.45667080    -0.00160
C1697       C  0.75387916  0.77805482  0.43480178    -0.11880
C1698       C  0.73315875  0.74337230  0.43120498     0.02050
H1699       H  0.75869467  0.71767362  0.48702371     0.15030
H1700       H  0.75293891  0.79473554  0.41976872     0.15030
C1701       C  0.71110575  0.73164399  0.40746423     0.36680
C1702       C  0.79990558  0.78133752  0.49974524     0.36590
N1703       N  0.69348121  0.72248530  0.38841917    -0.43660
N1704       N  0.81715805  0.79109178  0.51900494    -0.43660
C1705       C  0.89924127  0.53654169  0.52568266    -0.00070
C1706       C  0.88537491  0.50484238  0.53776538    -0.11940
C1707       C  0.86983393  0.97523038  0.52170528     0.02170
C1708       C  0.86778525  0.97665476  0.49260390    -0.00160
C1709       C  0.88072134  0.50825520  0.48054066    -0.11880
C1710       C  0.89603542  0.53792189  0.49665955     0.02050
H1711       H  0.88800667  0.50317737  0.55983099     0.15030
H1712       H  0.87996412  0.50987982  0.45827079     0.15030
C1713       C  0.91059837  0.56942779  0.48242785     0.36680
C1714       C  0.85919811  0.94397156  0.53553032     0.36590
N1715       N  0.92243595  0.59463299  0.47092824    -0.43660
N1716       N  0.85094451  0.91899650  0.54663317    -0.43660
C1717       C  0.88746145  0.86519702  0.31707363    -0.00070
C1718       C  0.91325699  0.89122012  0.33253482    -0.11940
C1719       C  0.90689860  0.90043745  0.35856938     0.02170
C1720       C  0.87378533  0.88411009  0.36927950    -0.00160
C1721       C  0.84787589  0.85841073  0.35341367    -0.11880
C1722       C  0.85447617  0.84878875  0.32762122     0.02050
H1723       H  0.93846969  0.90453805  0.32412970     0.15030
H1724       H  0.82244446  0.84535192  0.36136079     0.15030
C1725       C  0.82675064  0.82305998  0.31177373     0.36680
C1726       C  0.93486729  0.92709073  0.37351494     0.36590
N1727       N  0.80451255  0.80255290  0.29902950    -0.43660
N1728       N  0.95738890  0.94837871  0.38545895    -0.43660
C1729       C  0.53143160  0.79316087  0.55794290    -0.00070
C1730       C  0.54530480  0.78060025  0.57672868    -0.11940
C1731       C  0.53170440  0.74602837  0.57975177     0.02170
C1732       C  0.50348260  0.72314344  0.56390272    -0.00160
C1733       C  0.98954030  0.73544001  0.54511277    -0.11880
C1734       C  0.50336302  0.77002167  0.54174895     0.02050
H1735       H  0.56633045  0.79777766  0.58962691     0.15030
H1736       H  0.96839747  0.71797444  0.53243233     0.15030
C1737       C  0.98835979  0.78073623  0.52113929     0.36680
C1738       C  0.54637169  0.73459202  0.60008031     0.36590
N1739       N  0.97630369  0.78918707  0.50455165    -0.43660
N1740       N  0.55795370  0.72531170  0.61640429    -0.43660
C1741       C  0.62834672  0.98101057  0.52630956    -0.00070
C1742       C  0.62649041  0.50929177  0.53457415    -0.11940
C1743       C  0.63825397  0.53740248  0.51769587     0.02170
C1744       C  0.65353201  0.53859270  0.49203656    -0.00160
C1745       C  0.65776882  0.51153589  0.48445133    -0.11880
C1746       C  0.64504344  0.98275618  0.50113854     0.02050
H1747       H  0.61383605  0.50876412  0.55363742     0.15030
H1748       H  0.66914631  0.51196498  0.46472864     0.15030
C1749       C  0.64828654  0.95496717  0.49130454     0.36680
C1750       C  0.63298369  0.56430621  0.52677751     0.36590
N1751       N  0.65088506  0.93269402  0.48332639    -0.43660
N1752       N  0.62853320  0.58569209  0.53402968    -0.43660
C1753       C  0.98165581  0.89411824  0.52304230    -0.00070
C1754       C  0.96799176  0.87226345  0.50025527    -0.11940
C1755       C  0.94062841  0.86956988  0.48598854     0.02170
C1756       C  0.92679857  0.88926395  0.49445930    -0.00160
C1757       C  0.93977081  0.91048218  0.51755867    -0.11880
C1758       C  0.96713789  0.91320373  0.53189495     0.02050
H1759       H  0.97839147  0.85686121  0.49372444     0.15030
H1760       H  0.92902873  0.92562339  0.52400054     0.15030
C1761       C  0.97999179  0.93629308  0.55507027     0.36680
C1762       C  0.92647377  0.84550671  0.46351763     0.36590
N1763       N  0.99020265  0.95481538  0.57362680    -0.43660
N1764       N  0.91501635  0.82610847  0.44562786    -0.43660
C1765       C  0.52678970  0.87956776  0.64634369    -0.00070
C1766       C  0.99249131  0.86854885  0.65085997    -0.11940
C1767       C  0.97862878  0.86163743  0.67744763     0.02170
C1768       C  0.99925210  0.86624027  0.70032600    -0.00160
C1769       C  0.53341407  0.87713218  0.69595508    -0.11880
C1770       C  0.54719125  0.88336687  0.66934893     0.02050
H1771       H  0.97624714  0.86523410  0.63353266     0.15030
H1772       H  0.54941042  0.88037984  0.71347287     0.15030
C1773       C  0.58218752  0.89338699  0.66646601     0.36680
C1774       C  0.94358075  0.85120612  0.68079527     0.36590
N1775       N  0.61021152  0.90124045  0.66424292    -0.43660
N1776       N  0.91550676  0.84292552  0.68351559    -0.43660
loop_ 
_geom_bond_atom_site_label_1 
_geom_bond_atom_site_label_2 
_geom_bond_distance 
_geom_bond_site_symmetry_2 
_ccdc_geom_bond_type 
In1           O3   2.274       .  S
In1           O4   2.221       .  S
In1          O12   2.258       .  S
In1           O6   2.292       .  S
In1           O8   2.277       .  S
In1          O10   2.216       .  S
In1          O13   2.206       .  S
In1         O897   2.206       .  S
C2            O8   1.268       .  A
C2           O10   1.254       .  A
C2          C397   1.489       .  S
O3           C11   1.269       .  A
O4           C11   1.257       .  A
C5           O12   1.260       .  A
C5            O6   1.261       .  A
C5          C409   1.505       .  S
C7            O9   1.261       .  A
C7          O901   1.262       .  A
C7          C421   1.464       .  S
O9         In889   2.206       .  S
C11         C433   1.492       .  S
O13         C895   1.262       .  A
In14         O16   2.265       .  S
In14         O17   2.230       .  S
In14         O25   2.281       .  S
In14         O19   2.265       .  S
In14         O21   2.274       .  S
In14         O22   2.211       .  S
In14         O23   2.229       .  S
In14         O26   2.219       .  S
C15          O21   1.267       .  A
C15          O23   1.254       .  A
C15         C364   1.485       .  S
O16          C24   1.267       .  A
O17          C24   1.260       .  A
C18          O25   1.261       .  A
C18          O19   1.260       .  A
C18         C376   1.498       .  S
C20          O22   1.258       .  A
C20          O26   1.259       .  A
C20         C424   1.454       .  S
C24         C388   1.490       .  S
In27         O29   2.277       .  S
In27         O30   2.228       .  S
In27         O38   2.256       .  S
In27         O32   2.294       .  S
In27         O34   2.270       .  S
In27         O35   2.209       .  S
In27         O36   2.221       .  S
In27         O39   2.212       .  S
C28          O34   1.270       .  A
C28          O36   1.257       .  A
C28         C328   1.487       .  S
O29          C37   1.265       .  A
O30          C37   1.255       .  A
C31          O38   1.256       .  A
C31          O32   1.259       .  A
C31         C340   1.488       .  S
C33          O35   1.259       .  A
C33          O39   1.261       .  A
C33         C349   1.453       .  S
C37         C385   1.476       .  S
In40         O42   2.258       .  S
In40         O43   2.223       .  S
In40         O51   2.222       .  S
In40         O45   2.318       .  S
In40         O47   2.286       .  S
In40         O52   2.221       .  S
In40        O492   2.187       .  S
In40        O493   2.210       .  S
C41          O47   1.271       .  A
C41         O493   1.255       .  A
C41         C277   1.489       .  S
O42          C50   1.266       .  A
O43          C50   1.257       .  A
C44          O51   1.254       .  A
C44          O45   1.270       .  A
C44         C289   1.492       .  S
C46          O48   1.261       .  A
C46         O496   1.262   1_545  A
C46         C301   1.456       .  S
O48        In484   2.187   1_545  S
O49        In484   2.210       .  S
O49         C485   1.255       .  A
C50         C313   1.482       .  S
O52         C490   1.262       .  A
In53         O55   2.222       .  S
In53         O64   2.215       .  S
In53         O58   2.269       .  S
In53         O60   2.280       .  S
In53         O61   2.218       .  S
In53         O62   2.255       .  S
In53         O65   2.256       .  S
In53        O500   2.201       .  S
C54          O60   1.262       .  A
C54          O62   1.260       .  A
C54         C265   1.502       .  S
O55         C507   1.257       .  A
O56        In497   2.201       .  S
O56          C63   1.257       .  A
C57          O64   1.257       .  A
C57          O58   1.271       .  A
C57         C256   1.479       .  S
C59          O61   1.260       .  A
C59          O65   1.268       .  A
C59         C316   1.480       .  S
C63         O499   1.257       .  A
C63         C352   1.441       .  S
In66         O68   2.284       .  S
In66         O69   2.205       .  S
In66         O77   2.246       .  S
In66         O71   2.308       .  S
In66         O73   2.271       .  S
In66         O75   2.226       .  S
In66         O78   2.208       .  S
In66        O962   2.201       .  S
C67          O73   1.266       .  A
C67          O75   1.256       .  A
C67         C217   1.488       .  S
O68          C76   1.270       .  A
O69          C76   1.254       .  A
C70          O77   1.255       .  A
C70          O71   1.264       .  A
C70         C229   1.493       .  S
C72          O74   1.262       .  A
C72         O966   1.262       .  A
C72         C304   1.464       .  S
O74        In954   2.201       .  S
C76         C244   1.484       .  S
O78         C960   1.262       .  A
In79         O81   2.261       .  S
In79         O90   2.272       .  S
In79         O84   2.269       .  S
In79         O86   2.281       .  S
In79        O970   2.207       .  S
In79        O975   2.204       .  S
In79        O976   2.213       .  S
In79        O979   2.213       .  S
C80          O86   1.268       .  A
C80         O976   1.254       .  A
C80        C1288   1.477       .  S
O81          C89   1.270       .  A
O82        In967   2.207       .  S
O82         C977   1.258       .  A
C83          O90   1.262       .  A
C83          O84   1.261       .  A
C83         C373   1.501       .  S
C85          O87   1.257       .  A
C85          O91   1.259   1_455  A
C85         C205   1.443       .  S
O87        In967   2.204   1_455  S
O88        In967   2.213   1_455  S
O88         C968   1.254   1_455  A
C89         O970   1.258       .  A
C89         C241   1.484       .  S
O91        In967   2.213       .  S
In92         O94   2.264       .  S
In92         O95   2.221       .  S
In92        O103   2.228       .  S
In92         O97   2.324       .  S
In92         O99   2.287       .  S
In92        O100   2.188       .  S
In92        O101   2.216       .  S
In92        O104   2.215       .  S
C93          O99   1.270       .  A
C93         O101   1.255       .  A
C93         C361   1.487       .  S
O94         C102   1.265       .  A
O95         C102   1.256       .  A
C96         O103   1.252       .  A
C96          O97   1.269       .  A
C96         C412   1.494       .  S
C98         O100   1.260       .  A
C98         O104   1.263       .  A
C98         C208   1.456       .  S
C102        C193   1.487       .  S
In105       O107   2.258       .  S
In105       O108   2.223       .  S
In105       O116   2.295       .  S
In105       O110   2.247       .  S
In105       O112   2.277       .  S
In105       O113   2.213       .  S
In105       O114   2.210       .  S
In105       O117   2.204       .  S
C106        O112   1.271       .  A
C106        O114   1.257       .  A
C106        C325   1.481       .  S
O107        C115   1.266       .  A
O108        C115   1.259       .  A
C109        O116   1.263       .  A
C109        O110   1.256       .  A
C109        C268   1.502       .  S
C111        O113   1.258       .  A
C111        O117   1.259       .  A
C111        C181   1.461       .  S
C115        C196   1.480       .  S
In118       O120   2.274       .  S
In118       O121   2.221       .  S
In118       O129   2.239       .  S
In118       O123   2.304       .  S
In118       O125   2.266       .  S
In118       O127   2.218       .  S
In118       O130   2.206       .  S
In118       O570   2.211       .  S
C119        O125   1.269       .  A
C119        O127   1.258       .  A
C119        C280   1.492       .  S
O120        C128   1.268       .  A
O121        C128   1.257       .  A
C122        O129   1.257       .  A
C122        O123   1.263       .  A
C122        C232   1.498       .  S
C124        O126   1.259       .  A
C124        O574   1.259       .  A
C124        C157   1.449       .  S
O126       In562   2.211       .  S
C128        C169   1.485       .  S
O130        C568   1.259       .  A
In131       O133   2.266       .  S
In131       O134   2.225       .  S
In131       O142   2.242       .  S
In131       O136   2.292       .  S
In131       O138   2.280       .  S
In131       O143   2.220       .  S
In131       O583   2.194       .  S
In131       O584   2.221       .  S
C132        O138   1.266       .  A
C132        O584   1.252       .  A
C132        C253   1.488       .  S
O133        C141   1.267       .  A
O134        C141   1.258       .  A
C135        O142   1.259       .  A
C135        O136   1.264       .  A
C135        C337   1.496       .  S
C137        O139   1.261       .  A
C137        O587   1.262   1_545  A
C137        C184   1.449       .  S
O139       In575   2.194   1_545  S
O140       In575   2.221       .  S
O140        C576   1.252       .  A
C141        C172   1.492       .  S
O143        C581   1.262       .  A
In144       O146   2.270       .  S
In144       O155   2.244       .  S
In144       O149   2.288       .  S
In144       O151   2.286       .  S
In144      O1035   2.212       .  S
In144      O1040   2.211       .  S
In144      O1041   2.200       .  S
In144      O1044   2.206       .  S
C145        O151   1.273       .  A
C145       O1041   1.255       .  A
C145       C1108   1.483       .  S
O146        C154   1.270       .  A
O147      In1032   2.212   1_455  S
O147       C1042   1.258   1_455  A
C148        O155   1.261       .  A
C148        O149   1.264       .  A
C148        C292   1.504       .  S
C150        O152   1.260       .  A
C150        O156   1.259       .  A
C150        C160   1.447       .  S
O152      In1032   2.211   1_455  S
O153      In1032   2.200   1_455  S
O153       C1033   1.255   1_455  A
C154       O1035   1.258       .  A
C154        C436   1.481       .  S
O156      In1032   2.206   1_455  S
C157        C158   1.400       .  A
C157        C162   1.408       .  A
C158        C159   1.392       .  A
C158        H163   1.085       .  S
C159        C160   1.405       .  A
C159        C166   1.444       .  S
C160        C161   1.399       .  A
C161        C162   1.390       .  A
C161        H164   1.085       .  S
C162        C165   1.446       .  S
C165        N167   1.157       .  T
C166        N168   1.157   1_455  T
C169        C174   1.409   1_556  A
C169        C614   1.407   1_545  A
C170        C171   1.402   1_556  A
C170        C613   1.407       .  A
C170        H175   1.085       .  S
C171        C172   1.413       .  A
C171        C178   1.444       .  S
C172        C617   1.411       .  A
C173        C174   1.403       .  A
C173        C616   1.411   1_545  A
C173        H176   1.084       .  S
C174        C177   1.444   1_554  S
C177        N179   1.157       .  T
C178        N180   1.157       .  T
C181        C182   1.403       .  A
C181        C186   1.413       .  A
C182        C183   1.388       .  A
C182        H187   1.085       .  S
C183        C184   1.405       .  A
C183        C190   1.446       .  S
C184        C185   1.397       .  A
C185        C186   1.392       .  A
C185        H188   1.085   1_545  S
C186        C189   1.444       .  S
C189        N191   1.157       .  T
C190        N192   1.157       .  T
C193        C194   1.408       .  A
C193        C198   1.416       .  A
C194        C195   1.402       .  A
C194        H199   1.084       .  S
C195        C196   1.410       .  A
C195        C202   1.444       .  S
C196        C197   1.404       .  A
C197        C198   1.403       .  A
C197        H200   1.085       .  S
C198        C201   1.444       .  S
C201        N203   1.157       .  T
C202        N204   1.157       .  T
C205        C206   1.399       .  A
C205        C210   1.402       .  A
C206        C207   1.392       .  A
C206        H211   1.085       .  S
C207        C208   1.410       .  A
C207        C214   1.445       .  S
C208        C209   1.403       .  A
C209        C210   1.387       .  A
C209        H212   1.085       .  S
C210        C213   1.445       .  S
C213       N1103   1.157   1_455  T
C214        N216   1.157       .  T
N215       C1101   1.157       .  T
C217        C222   1.410       .  A
C217       C1106   1.412       .  A
C218        C219   1.404       .  A
C218       C1105   1.412       .  A
C218        H223   1.085       .  S
C219       C1108   1.407       .  A
C219        C226   1.443       .  S
C220       C1033   1.483   1_455  S
C220        C221   1.409       .  A
C220       C1107   1.407   1_455  A
C221        C222   1.401       .  A
C221        H224   1.085       .  S
C222        C225   1.443       .  S
C225        N227   1.157       .  T
C226        N228   1.157       .  T
C229        C230   1.408       .  A
C229        C234   1.413       .  A
C230        C231   1.418       .  A
C230        H235   1.084       .  S
C231        C232   1.417       .  A
C231        C238   1.441       .  S
C232        C233   1.404       .  A
C233        C234   1.398       .  A
C233        H236   1.085       .  S
C234        C237   1.445       .  S
C237        N239   1.157       .  T
C238        N240   1.157       .  T
C241        C242   1.399       .  A
C241       C1134   1.420       .  A
C242        C243   1.401       .  A
C242        H247   1.084       .  S
C243       C1132   1.420       .  A
C243        C250   1.445       .  S
C244        C245   1.399       .  A
C244       C1131   1.420   1_455  A
C245        C246   1.402       .  A
C245        H248   1.084       .  S
C246       C1129   1.420   1_455  A
C246        C249   1.445       .  S
C249        N251   1.157       .  T
C250        N252   1.157       .  T
C253        C258   1.412       .  A
C253        C698   1.411       .  A
C254        C255   1.401       .  A
C254        C697   1.411   1_545  A
C254        H259   1.084       .  S
C255        C256   1.406       .  A
C255        C262   1.444       .  S
C256        C701   1.406   1_545  A
C257        C258   1.402       .  A
C257        C700   1.406       .  A
C257        H260   1.084       .  S
C258        C261   1.443       .  S
C261        N263   1.157       .  T
C262        N264   1.157       .  T
C265        C270   1.419       .  A
C265       C1154   1.405       .  A
C266        C267   1.404       .  A
C266       C1153   1.405   1_455  A
C266        H271   1.085       .  S
C267        C268   1.420       .  A
C267        C274   1.445       .  S
C268        C269   1.407       .  A
C269       C1158   1.412   1_455  A
C269        H272   1.084       .  S
C270       C1157   1.412       .  A
C270        C273   1.443       .  S
C273        N275   1.157       .  T
C274        N276   1.157       .  T
C277        C282   1.410       .  A
C277        C722   1.409       .  A
C278        C279   1.401       .  A
C278        C721   1.409   1_545  A
C278        H283   1.084       .  S
C279        C280   1.412       .  A
C279        C286   1.444       .  S
C280        C725   1.412       .  A
C281        C282   1.404       .  A
C281        C724   1.412       .  A
C281        H284   1.084       .  S
C282        C285   1.444       .  S
C285        N287   1.157       .  T
C286        N288   1.157       .  T
C289        C290   1.402       .  A
C289        C294   1.410       .  A
C290        C291   1.401       .  A
C290        H295   1.085       .  S
C291        C292   1.419       .  A
C291        C298   1.445       .  S
C292        C293   1.414       .  A
C293        C294   1.417       .  A
C293        H296   1.084       .  S
C294        C297   1.441       .  S
C297        N299   1.157       .  T
C298        N300   1.158       .  T
C301        C302   1.400       .  A
C301        C306   1.407       .  A
C302        C303   1.389       .  A
C302        H307   1.085       .  S
C303        C304   1.412       .  A
C303        C310   1.445       .  S
C304        C305   1.405       .  A
C305        C306   1.391       .  A
C305        H308   1.085       .  S
C306        C309   1.445       .  S
C309        N311   1.157   1_545  T
C310        N312   1.157       .  T
C313        C314   1.405       .  A
C313        C762   1.414       .  A
C314        C759   1.402   1_556  A
C314        H319   1.085       .  S
C315        C316   1.413       .  A
C315        C758   1.402   1_544  A
C315        C322   1.444       .  S
C316        C317   1.404       .  A
C317        C318   1.402   1_544  A
C317        H320   1.084       .  S
C318        C757   1.414       .  A
C318        C321   1.444       .  S
C321        N323   1.157       .  T
C322        N768   1.157       .  T
N324        C766   1.157       .  T
C325        C326   1.399       .  A
C325        C330   1.416       .  A
C326        C327   1.403       .  A
C326        H331   1.085       .  S
C327        C328   1.420       .  A
C327        C334   1.444       .  S
C328        C329   1.402       .  A
C329        C330   1.401       .  A
C329        H332   1.084       .  S
C330        C333   1.445       .  S
C333        N335   1.157       .  T
C334        N336   1.157       .  T
C337        C338   1.411       .  A
C337        C342   1.418       .  A
C338       C1227   1.416   1_455  A
C338        H343   1.083       .  S
C339        C340   1.411       .  A
C339       C1226   1.416       .  A
C339        C346   1.441       .  S
C340        C341   1.401       .  A
C341       C1230   1.399       .  A
C341        H344   1.085       .  S
C342       C1229   1.399   1_455  A
C342        C345   1.446       .  S
C345        N347   1.157       .  T
C346        N348   1.157       .  T
C349        C350   1.401       .  A
C349        C354   1.409       .  A
C350        C351   1.390       .  A
C350        H355   1.083       .  S
C351        C352   1.404       .  A
C351        C358   1.446       .  S
C352        C353   1.396       .  A
C353        C354   1.391       .  A
C353        H356   1.085       .  S
C354        C357   1.444       .  S
C357        N359   1.157       .  T
C358        N360   1.157       .  T
C361        C362   1.402       .  A
C361        C366   1.419       .  A
C362        C363   1.404       .  A
C362        H367   1.084       .  S
C363        C364   1.417       .  A
C363        C370   1.444       .  S
C364        C365   1.400       .  A
C365        C366   1.401       .  A
C365        H368   1.085       .  S
C366        C369   1.445       .  S
C369        N371   1.157       .  T
C370        N372   1.157       .  T
C373        C374   1.405       .  A
C373        C378   1.420       .  A
C374        C819   1.407   1_545  A
C374        H379   1.085       .  S
C375        C376   1.418       .  A
C375        C818   1.407       .  A
C375        C382   1.444       .  S
C376        C821   1.405       .  A
C377        C378   1.410       .  A
C377        C820   1.405   1_545  A
C377        H380   1.085       .  S
C378        C381   1.444       .  S
C381        N383   1.157       .  T
C382        N384   1.157       .  T
C385        C386   1.401       .  A
C385        C390   1.410       .  A
C386        C387   1.403       .  A
C386        H391   1.085       .  S
C387        C388   1.418       .  A
C387        C394   1.444       .  S
C388        C389   1.407       .  A
C389        C390   1.404       .  A
C389        H392   1.084       .  S
C390        C393   1.445       .  S
C393        N395   1.157       .  T
C394        N396   1.157       .  T
C397        C398   1.404       .  A
C397        C402   1.422       .  A
C398        C399   1.401       .  A
C398        H403   1.084       .  S
C399        C400   1.414       .  A
C399        C406   1.445       .  S
C400        C968   1.477   1_455  S
C400       C1289   1.398   1_455  A
C401       C1288   1.398       .  A
C401       C1290   1.403       .  A
C401        H404   1.085       .  S
C402       C1289   1.403   1_455  A
C402       C1293   1.445   1_455  S
C405       C1290   1.445       .  S
C405        N407   1.157       .  T
C406        N408   1.157       .  T
C409        C414   1.421       .  A
C409        C854   1.406       .  A
C410        C411   1.402       .  A
C410        C853   1.406   1_545  A
C410        H415   1.085       .  S
C411        C412   1.415       .  A
C411        C418   1.446       .  S
C412        C413   1.405       .  A
C413        C858   1.416   1_545  A
C413        H416   1.084       .  S
C414        C857   1.416       .  A
C414        C417   1.442       .  S
C417        N419   1.157       .  T
C418        N420   1.157       .  T
C421        C422   1.404       .  A
C421        C426   1.413       .  A
C422        C423   1.390       .  A
C422        H427   1.084       .  S
C423        C424   1.407       .  A
C423        C430   1.446       .  S
C424        C425   1.399       .  A
C425        C426   1.391       .  A
C425        H428   1.085       .  S
C426        C429   1.445       .  S
C429        N431   1.157       .  T
C430        N432   1.157       .  T
C433        C438   1.412       .  A
C433       C1322   1.413   1_455  A
C434        C435   1.403       .  A
C434       C1321   1.413       .  A
C434        H439   1.084       .  S
C435        C436   1.406       .  A
C435        C442   1.443       .  S
C436       C1325   1.407       .  A
C437        C438   1.402       .  A
C437       C1324   1.407   1_455  A
C437        H440   1.085       .  S
C438        C441   1.443       .  S
C441        N443   1.157       .  T
C442        N444   1.157       .  T
In445       O447   2.274       .  S
In445       O448   2.221       .  S
In445       O456   2.258       .  S
In445       O450   2.292       .  S
In445       O452   2.277       .  S
In445      O1341   2.206       .  S
In445       O454   2.216       .  S
In445       O457   2.206       .  S
C446        O452   1.268       .  A
C446        O454   1.254       .  A
C446        C841   1.489       .  S
O447        C455   1.269       .  A
O448        C455   1.257       .  A
C449        O456   1.260       .  A
C449        O450   1.261       .  A
C449        C853   1.505       .  S
C451        O453   1.261       .  A
C451       O1345   1.262       .  A
C451        C865   1.464       .  S
O453      In1333   2.206       .  S
C455        C877   1.492       .  S
O457       C1339   1.262       .  A
In458       O460   2.265       .  S
In458       O461   2.230       .  S
In458       O469   2.281       .  S
In458       O463   2.265       .  S
In458       O465   2.274       .  S
In458       O466   2.211       .  S
In458       O467   2.229       .  S
In458       O470   2.219       .  S
C459        O465   1.267       .  A
C459        O467   1.254       .  A
C459        C808   1.485       .  S
O460        C468   1.267       .  A
O461        C468   1.260       .  A
C462        O469   1.261       .  A
C462        O463   1.260       .  A
C462        C820   1.498       .  S
C464        O466   1.258       .  A
C464        O470   1.259       .  A
C464        C868   1.454       .  S
C468        C832   1.490       .  S
In471       O473   2.277       .  S
In471       O474   2.228       .  S
In471       O482   2.256       .  S
In471       O476   2.294       .  S
In471       O478   2.270       .  S
In471       O479   2.209       .  S
In471       O480   2.221       .  S
In471       O483   2.212       .  S
C472        O478   1.270       .  A
C472        O480   1.257       .  A
C472        C772   1.487       .  S
O473        C481   1.265       .  A
O474        C481   1.255       .  A
C475        O482   1.256       .  A
C475        O476   1.259       .  A
C475        C784   1.488       .  S
C477        O479   1.259       .  A
C477        O483   1.261       .  A
C477        C793   1.453       .  S
C481        C829   1.476       .  S
In484       O486   2.258       .  S
In484       O487   2.223       .  S
In484       O495   2.222       .  S
In484       O489   2.318       .  S
In484       O491   2.286       .  S
In484       O496   2.221       .  S
C485        O491   1.271       .  A
C485        C721   1.489       .  S
O486        C494   1.266       .  A
O487        C494   1.257       .  A
C488        O495   1.254       .  A
C488        O489   1.270       .  A
C488        C733   1.492       .  S
C490        O492   1.261       .  A
C490        C745   1.456       .  S
C494        C757   1.482       .  S
In497       O499   2.222       .  S
In497       O508   2.215       .  S
In497       O502   2.269       .  S
In497       O504   2.280       .  S
In497       O505   2.218       .  S
In497       O506   2.255       .  S
In497       O509   2.256       .  S
C498        O504   1.262       .  A
C498        O506   1.260       .  A
C498        C709   1.502       .  S
O500        C507   1.257       .  A
C501        O508   1.257       .  A
C501        O502   1.271       .  A
C501        C700   1.479       .  S
C503        O505   1.260       .  A
C503        O509   1.268       .  A
C503        C760   1.480       .  S
C507        C796   1.441   1_545  S
In510       O512   2.284       .  S
In510       O513   2.205       .  S
In510       O521   2.246       .  S
In510       O515   2.308       .  S
In510       O517   2.271       .  S
In510      O1406   2.201       .  S
In510       O519   2.226       .  S
In510       O522   2.208       .  S
C511        O517   1.266       .  A
C511        O519   1.256       .  A
C511        C661   1.488       .  S
O512        C520   1.270       .  A
O513        C520   1.254       .  A
C514        O521   1.255       .  A
C514        O515   1.264       .  A
C514        C673   1.493       .  S
C516        O518   1.262       .  A
C516       O1410   1.262       .  A
C516        C748   1.464       .  S
O518      In1398   2.201       .  S
C520        C688   1.484       .  S
O522       C1404   1.262       .  A
In523       O525   2.261       .  S
In523      O1414   2.207       .  S
In523       O534   2.272       .  S
In523       O528   2.269       .  S
In523       O530   2.281       .  S
In523      O1419   2.204       .  S
In523      O1420   2.213       .  S
In523      O1423   2.213       .  S
C524        O530   1.268       .  A
C524       O1420   1.254       .  A
C524       C1732   1.477       .  S
O525        C533   1.270       .  A
O526      In1411   2.207       .  S
O526       C1421   1.258       .  A
C527        O534   1.262       .  A
C527        O528   1.261       .  A
C527        C817   1.501       .  S
C529        O531   1.257       .  A
C529        O535   1.259   1_455  A
C529        C649   1.443       .  S
O531      In1411   2.204   1_455  S
O532      In1411   2.213   1_455  S
O532       C1412   1.254   1_455  A
C533       O1414   1.258       .  A
C533        C685   1.484       .  S
O535      In1411   2.213       .  S
In536       O538   2.264       .  S
In536       O539   2.221       .  S
In536       O547   2.228       .  S
In536       O541   2.324       .  S
In536       O543   2.287       .  S
In536       O544   2.188       .  S
In536       O545   2.216       .  S
In536       O548   2.215       .  S
C537        O543   1.270       .  A
C537        O545   1.255       .  A
C537        C805   1.487       .  S
O538        C546   1.265       .  A
O539        C546   1.256       .  A
C540        O547   1.252       .  A
C540        O541   1.269       .  A
C540        C856   1.494       .  S
C542        O544   1.260       .  A
C542        O548   1.263       .  A
C542        C652   1.456       .  S
C546        C637   1.487       .  S
In549       O551   2.258       .  S
In549       O552   2.223       .  S
In549       O560   2.295       .  S
In549       O554   2.247       .  S
In549       O556   2.277       .  S
In549       O557   2.213       .  S
In549       O558   2.210       .  S
In549       O561   2.204       .  S
C550        O556   1.271       .  A
C550        O558   1.257       .  A
C550        C769   1.481       .  S
O551        C559   1.266       .  A
O552        C559   1.259       .  A
C553        O560   1.263       .  A
C553        O554   1.256       .  A
C553        C712   1.502       .  S
C555        O557   1.258       .  A
C555        O561   1.259       .  A
C555        C625   1.461       .  S
C559        C640   1.480       .  S
In562       O564   2.274       .  S
In562       O565   2.221       .  S
In562       O573   2.239       .  S
In562       O567   2.304       .  S
In562       O569   2.266       .  S
In562       O571   2.218       .  S
In562       O574   2.206       .  S
C563        O569   1.269       .  A
C563        O571   1.258       .  A
C563        C724   1.492       .  S
O564        C572   1.268       .  A
O565        C572   1.257       .  A
C566        O573   1.257       .  A
C566        O567   1.263       .  A
C566        C676   1.498       .  S
C568        O570   1.259       .  A
C568        C601   1.449   1_545  S
C572        C613   1.485       .  S
In575       O577   2.266       .  S
In575       O578   2.225       .  S
In575       O586   2.242       .  S
In575       O580   2.292       .  S
In575       O582   2.280       .  S
In575       O587   2.220       .  S
C576        O582   1.266       .  A
C576        C697   1.488       .  S
O577        C585   1.267       .  A
O578        C585   1.258       .  A
C579        O586   1.259       .  A
C579        O580   1.264       .  A
C579        C781   1.496       .  S
C581        O583   1.261       .  A
C581        C628   1.449       .  S
C585        C616   1.492       .  S
In588       O590   2.270       .  S
In588      O1479   2.212       .  S
In588       O599   2.244       .  S
In588       O593   2.288       .  S
In588       O595   2.286       .  S
In588      O1484   2.211       .  S
In588      O1485   2.200       .  S
In588      O1488   2.206       .  S
C589        O595   1.273       .  A
C589       O1485   1.255       .  A
C589       C1552   1.483       .  S
O590        C598   1.270       .  A
O591      In1476   2.212   1_455  S
O591       C1486   1.258   1_455  A
C592        O599   1.261       .  A
C592        O593   1.264       .  A
C592        C736   1.504       .  S
C594        O596   1.260       .  A
C594        O600   1.259       .  A
C594        C604   1.447       .  S
O596      In1476   2.211   1_455  S
O597      In1476   2.200   1_455  S
O597       C1477   1.255   1_455  A
C598       O1479   1.258       .  A
C598        C880   1.481       .  S
O600      In1476   2.206   1_455  S
C601        C602   1.400       .  A
C601        C606   1.408       .  A
C602        C603   1.392       .  A
C602        H607   1.085       .  S
C603        C604   1.405       .  A
C603        C610   1.444       .  S
C604        C605   1.399       .  A
C605        C606   1.390       .  A
C605        H608   1.085       .  S
C606        C609   1.446       .  S
C609        N611   1.157       .  T
C610        N612   1.157   1_455  T
C613        C618   1.409   1_556  A
C614        C615   1.402   1_556  A
C614        H619   1.085       .  S
C615        C616   1.413       .  A
C615        C622   1.444       .  S
C617        C618   1.403       .  A
C617        H620   1.084       .  S
C618        C621   1.444   1_554  S
C621        N623   1.157       .  T
C622        N624   1.157       .  T
C625        C626   1.403       .  A
C625        C630   1.413       .  A
C626        C627   1.388       .  A
C626        H631   1.085       .  S
C627        C628   1.405       .  A
C627        C634   1.446       .  S
C628        C629   1.397       .  A
C629        C630   1.392       .  A
C629        H632   1.085       .  S
C630        C633   1.444       .  S
C633        N635   1.157       .  T
C634        N636   1.157       .  T
C637        C638   1.408       .  A
C637        C642   1.416       .  A
C638        C639   1.402       .  A
C638        H643   1.084       .  S
C639        C640   1.410       .  A
C639        C646   1.444       .  S
C640        C641   1.404       .  A
C641        C642   1.403       .  A
C641        H644   1.085       .  S
C642        C645   1.444       .  S
C645        N647   1.157       .  T
C646        N648   1.157       .  T
C649        C650   1.399       .  A
C649        C654   1.402       .  A
C650        C651   1.392       .  A
C650        H655   1.085       .  S
C651        C652   1.410       .  A
C651        C658   1.445       .  S
C652        C653   1.403       .  A
C653        C654   1.387       .  A
C653        H656   1.085       .  S
C654        C657   1.445       .  S
C657       N1547   1.157   1_455  T
C658        N660   1.157       .  T
N659       C1545   1.157       .  T
C661       C1550   1.412       .  A
C661        C666   1.410       .  A
C662       C1549   1.412       .  A
C662        C663   1.404       .  A
C662        H667   1.085       .  S
C663       C1552   1.407       .  A
C663        C670   1.443       .  S
C664       C1477   1.483   1_455  S
C664       C1551   1.407   1_455  A
C664        C665   1.409       .  A
C665        C666   1.401       .  A
C665        H668   1.085       .  S
C666        C669   1.443       .  S
C669        N671   1.157       .  T
C670        N672   1.157       .  T
C673        C674   1.408       .  A
C673        C678   1.413       .  A
C674        C675   1.418       .  A
C674        H679   1.084       .  S
C675        C676   1.417       .  A
C675        C682   1.441       .  S
C676        C677   1.404       .  A
C677        C678   1.398       .  A
C677        H680   1.085       .  S
C678        C681   1.445       .  S
C681        N683   1.157       .  T
C682        N684   1.157       .  T
C685        C686   1.399       .  A
C685       C1578   1.420       .  A
C686        C687   1.401       .  A
C686        H691   1.084       .  S
C687       C1576   1.420       .  A
C687        C694   1.445       .  S
C688       C1575   1.420   1_455  A
C688        C689   1.399       .  A
C689        C690   1.402       .  A
C689        H692   1.084       .  S
C690       C1573   1.420   1_455  A
C690        C693   1.445       .  S
C693        N695   1.157       .  T
C694        N696   1.157       .  T
C697        C702   1.412       .  A
C698        C699   1.401       .  A
C698        H703   1.084       .  S
C699        C700   1.406       .  A
C699        C706   1.444       .  S
C701        C702   1.402       .  A
C701        H704   1.084       .  S
C702        C705   1.443       .  S
C705        N707   1.157       .  T
C706        N708   1.157       .  T
C709       C1598   1.405       .  A
C709        C714   1.419       .  A
C710       C1597   1.405   1_455  A
C710        C711   1.404       .  A
C710        H715   1.085       .  S
C711        C712   1.420       .  A
C711        C718   1.445       .  S
C712        C713   1.407       .  A
C713       C1602   1.412   1_455  A
C713        H716   1.084       .  S
C714       C1601   1.412       .  A
C714        C717   1.443       .  S
C717        N719   1.157       .  T
C718        N720   1.157       .  T
C721        C726   1.410       .  A
C722        C723   1.401       .  A
C722        H727   1.084       .  S
C723        C724   1.412       .  A
C723        C730   1.444       .  S
C725        C726   1.404   1_545  A
C725        H728   1.084   1_545  S
C726        C729   1.444       .  S
C729        N731   1.157       .  T
C730        N732   1.157       .  T
C733        C734   1.402       .  A
C733        C738   1.410       .  A
C734        C735   1.401       .  A
C734        H739   1.085       .  S
C735        C736   1.419       .  A
C735        C742   1.445       .  S
C736        C737   1.414       .  A
C737        C738   1.417       .  A
C737        H740   1.084       .  S
C738        C741   1.441       .  S
C741        N743   1.157       .  T
C742        N744   1.158       .  T
C745        C746   1.400       .  A
C745        C750   1.407       .  A
C746        C747   1.389       .  A
C746        H751   1.085       .  S
C747        C748   1.412       .  A
C747        C754   1.445       .  S
C748        C749   1.405       .  A
C749        C750   1.391       .  A
C749        H752   1.085       .  S
C750        C753   1.445       .  S
C753        N755   1.157       .  T
C754        N756   1.157       .  T
C757        C758   1.405       .  A
C758        H763   1.085       .  S
C759        C760   1.413       .  A
C759        C766   1.444       .  S
C760        C761   1.404       .  A
C761        C762   1.402   1_554  A
C761        H764   1.084       .  S
C762        C765   1.444       .  S
C765        N767   1.157       .  T
C769        C770   1.399       .  A
C769        C774   1.416       .  A
C770        C771   1.403       .  A
C770        H775   1.085       .  S
C771        C772   1.420       .  A
C771        C778   1.444       .  S
C772        C773   1.402       .  A
C773        C774   1.401       .  A
C773        H776   1.084       .  S
C774        C777   1.445       .  S
C777        N779   1.157       .  T
C778        N780   1.157       .  T
C781        C782   1.411       .  A
C781        C786   1.418       .  A
C782       C1671   1.416   1_455  A
C782        H787   1.083       .  S
C783       C1670   1.416       .  A
C783        C784   1.411       .  A
C783        C790   1.441       .  S
C784        C785   1.401       .  A
C785       C1674   1.399       .  A
C785        H788   1.085       .  S
C786       C1673   1.399   1_455  A
C786        C789   1.446       .  S
C789        N791   1.157       .  T
C790        N792   1.157       .  T
C793        C794   1.401       .  A
C793        C798   1.409       .  A
C794        C795   1.390       .  A
C794        H799   1.083       .  S
C795        C796   1.404       .  A
C795        C802   1.446       .  S
C796        C797   1.396       .  A
C797        C798   1.391       .  A
C797        H800   1.085   1_565  S
C798        C801   1.444       .  S
C801        N803   1.157       .  T
C802        N804   1.157       .  T
C805        C806   1.402       .  A
C805        C810   1.419       .  A
C806        C807   1.404       .  A
C806        H811   1.084       .  S
C807        C808   1.417       .  A
C807        C814   1.444       .  S
C808        C809   1.400       .  A
C809        C810   1.401       .  A
C809        H812   1.085       .  S
C810        C813   1.445       .  S
C813        N815   1.157       .  T
C814        N816   1.157       .  T
C817        C818   1.405       .  A
C817        C822   1.420       .  A
C818        H823   1.085       .  S
C819        C820   1.418       .  A
C819        C826   1.444       .  S
C821        C822   1.410       .  A
C821        H824   1.085       .  S
C822        C825   1.444       .  S
C825        N827   1.157       .  T
C826        N828   1.157       .  T
C829        C830   1.401       .  A
C829        C834   1.410       .  A
C830        C831   1.403       .  A
C830        H835   1.085       .  S
C831        C832   1.418       .  A
C831        C838   1.444       .  S
C832        C833   1.407       .  A
C833        C834   1.404       .  A
C833        H836   1.084       .  S
C834        C837   1.445       .  S
C837        N839   1.157       .  T
C838        N840   1.157       .  T
C841        C842   1.404       .  A
C841        C846   1.422       .  A
C842        C843   1.401       .  A
C842        H847   1.084       .  S
C843        C844   1.414       .  A
C843        C850   1.445       .  S
C844       C1412   1.477   1_455  S
C844       C1733   1.398   1_455  A
C845       C1732   1.398       .  A
C845       C1734   1.403       .  A
C845        H848   1.085       .  S
C846       C1733   1.403   1_455  A
C846       C1737   1.445   1_455  S
C849       C1734   1.445       .  S
C849        N851   1.157       .  T
C850        N852   1.157       .  T
C853        C858   1.421       .  A
C854        C855   1.402       .  A
C854        H859   1.085       .  S
C855        C856   1.415       .  A
C855        C862   1.446       .  S
C856        C857   1.405       .  A
C857        H860   1.084       .  S
C858        C861   1.442       .  S
C861        N863   1.157       .  T
C862        N864   1.157       .  T
C865        C866   1.404       .  A
C865        C870   1.413       .  A
C866        C867   1.390       .  A
C866        H871   1.084       .  S
C867        C868   1.407       .  A
C867        C874   1.446       .  S
C868        C869   1.399       .  A
C869        C870   1.391       .  A
C869        H872   1.085       .  S
C870        C873   1.445       .  S
C873        N875   1.157       .  T
C874        N876   1.157       .  T
C877       C1766   1.413   1_455  A
C877        C882   1.412       .  A
C878       C1765   1.413       .  A
C878        C879   1.403       .  A
C878        H883   1.084       .  S
C879        C880   1.406       .  A
C879        C886   1.443       .  S
C880       C1769   1.407       .  A
C881       C1768   1.407   1_455  A
C881        C882   1.402       .  A
C881        H884   1.085       .  S
C882        C885   1.443       .  S
C885        N887   1.157       .  T
C886        N888   1.157       .  T
In889       O891   2.274       .  S
In889       O892   2.221       .  S
In889       O900   2.258       .  S
In889       O894   2.292       .  S
In889       O896   2.277       .  S
In889       O898   2.216       .  S
In889       O901   2.206       .  S
C890        O896   1.268       .  A
C890        O898   1.254       .  A
C890       C1285   1.489       .  S
O891        C899   1.269       .  A
O892        C899   1.257       .  A
C893        O900   1.260       .  A
C893        O894   1.261       .  A
C893       C1297   1.505       .  S
C895        O897   1.261       .  A
C895       C1309   1.464   1_455  S
C899       C1321   1.492       .  S
In902       O904   2.265       .  S
In902       O905   2.230       .  S
In902       O913   2.281       .  S
In902       O907   2.265       .  S
In902       O909   2.274       .  S
In902       O910   2.211       .  S
In902       O911   2.229       .  S
In902       O914   2.219       .  S
C903        O909   1.267       .  A
C903        O911   1.254       .  A
C903       C1252   1.485       .  S
O904        C912   1.267       .  A
O905        C912   1.260       .  A
C906        O913   1.261       .  A
C906        O907   1.260       .  A
C906       C1264   1.498       .  S
C908        O910   1.258       .  A
C908        O914   1.259       .  A
C908       C1312   1.454       .  S
C912       C1276   1.490       .  S
In915       O917   2.277       .  S
In915       O918   2.228       .  S
In915       O926   2.256       .  S
In915       O920   2.294       .  S
In915       O922   2.270       .  S
In915       O923   2.209       .  S
In915       O924   2.221       .  S
In915       O927   2.212       .  S
C916        O922   1.270       .  A
C916        O924   1.257       .  A
C916       C1216   1.487       .  S
O917        C925   1.265       .  A
O918        C925   1.255       .  A
C919        O926   1.256       .  A
C919        O920   1.259       .  A
C919       C1228   1.488       .  S
C921        O923   1.259       .  A
C921        O927   1.261       .  A
C921       C1237   1.453       .  S
C925       C1273   1.476       .  S
In928       O930   2.258       .  S
In928       O931   2.223       .  S
In928       O939   2.222       .  S
In928       O933   2.318       .  S
In928       O935   2.286       .  S
In928      O1380   2.187       .  S
In928      O1381   2.210       .  S
In928       O940   2.221       .  S
C929        O935   1.271       .  A
C929       O1381   1.255       .  A
C929       C1165   1.489       .  S
O930        C938   1.266       .  A
O931        C938   1.257       .  A
C932        O939   1.254       .  A
C932        O933   1.270       .  A
C932       C1177   1.492       .  S
C934        O936   1.261       .  A
C934       O1384   1.262   1_545  A
C934       C1189   1.456       .  S
O936      In1372   2.187   1_545  S
O937      In1372   2.210       .  S
O937       C1373   1.255       .  A
C938       C1201   1.482       .  S
O940       C1378   1.262       .  A
In941       O943   2.222       .  S
In941      O1388   2.201       .  S
In941       O952   2.215       .  S
In941       O946   2.269       .  S
In941       O948   2.280       .  S
In941       O949   2.218       .  S
In941       O950   2.255       .  S
In941       O953   2.256       .  S
C942        O948   1.262       .  A
C942        O950   1.260       .  A
C942       C1153   1.502       .  S
O943       C1395   1.257       .  A
O944      In1385   2.201       .  S
O944        C951   1.257       .  A
C945        O952   1.257       .  A
C945        O946   1.271       .  A
C945       C1144   1.479       .  S
C947        O949   1.260       .  A
C947        O953   1.268       .  A
C947       C1204   1.480       .  S
C951       O1387   1.257       .  A
C951       C1240   1.441       .  S
In954       O956   2.284       .  S
In954       O957   2.205       .  S
In954       O965   2.246       .  S
In954       O959   2.308       .  S
In954       O961   2.271       .  S
In954       O963   2.226       .  S
In954       O966   2.208       .  S
C955        O961   1.266       .  A
C955        O963   1.256       .  A
C955       C1105   1.488       .  S
O956        C964   1.270       .  A
O957        C964   1.254       .  A
C958        O965   1.255       .  A
C958        O959   1.264       .  A
C958       C1117   1.493       .  S
C960        O962   1.262       .  A
C960       C1192   1.464   1_455  S
C964       C1132   1.484       .  S
In967       O969   2.261       .  S
In967       O978   2.272       .  S
In967       O972   2.269       .  S
In967       O974   2.281       .  S
C968        O974   1.268       .  A
O969        C977   1.270       .  A
C971        O978   1.262       .  A
C971        O972   1.261       .  A
C971       C1261   1.501       .  S
C973        O975   1.257       .  A
C973        O979   1.259       .  A
C973       C1093   1.443       .  S
C977       C1129   1.484       .  S
In980       O982   2.264       .  S
In980       O983   2.221       .  S
In980       O991   2.228       .  S
In980       O985   2.324       .  S
In980       O987   2.287       .  S
In980       O988   2.188       .  S
In980       O989   2.216       .  S
In980       O992   2.215       .  S
C981        O987   1.270       .  A
C981        O989   1.255       .  A
C981       C1249   1.487       .  S
O982        C990   1.265       .  A
O983        C990   1.256       .  A
C984        O991   1.252       .  A
C984        O985   1.269       .  A
C984       C1300   1.494       .  S
C986        O988   1.260       .  A
C986        O992   1.263       .  A
C986       C1096   1.456       .  S
C990       C1081   1.487       .  S
In993       O995   2.258       .  S
In993       O996   2.223       .  S
In993      O1004   2.295       .  S
In993       O998   2.247       .  S
In993      O1000   2.277       .  S
In993      O1001   2.213       .  S
In993      O1002   2.210       .  S
In993      O1005   2.204       .  S
C994       O1000   1.271       .  A
C994       O1002   1.257       .  A
C994       C1213   1.481       .  S
O995       C1003   1.266       .  A
O996       C1003   1.259       .  A
C997       O1004   1.263       .  A
C997        O998   1.256       .  A
C997       C1156   1.502       .  S
C999       O1001   1.258       .  A
C999       O1005   1.259       .  A
C999       C1069   1.461       .  S
C1003      C1084   1.480       .  S
In1006     O1008   2.274       .  S
In1006     O1009   2.221       .  S
In1006     O1017   2.239       .  S
In1006     O1011   2.304       .  S
In1006     O1013   2.266       .  S
In1006     O1458   2.211       .  S
In1006     O1015   2.218       .  S
In1006     O1018   2.206       .  S
C1007      O1013   1.269       .  A
C1007      O1015   1.258       .  A
C1007      C1168   1.492       .  S
O1008      C1016   1.268       .  A
O1009      C1016   1.257       .  A
C1010      O1017   1.257       .  A
C1010      O1011   1.263       .  A
C1010      C1120   1.498       .  S
C1012      O1014   1.259       .  A
C1012      O1462   1.259       .  A
C1012      C1045   1.449       .  S
O1014     In1450   2.211       .  S
C1016      C1057   1.485       .  S
O1018      C1456   1.259       .  A
In1019     O1021   2.266       .  S
In1019     O1022   2.225       .  S
In1019     O1030   2.242       .  S
In1019     O1024   2.292       .  S
In1019     O1026   2.280       .  S
In1019     O1471   2.194       .  S
In1019     O1472   2.221       .  S
In1019     O1031   2.220       .  S
C1020      O1026   1.266       .  A
C1020      O1472   1.252       .  A
C1020      C1141   1.488       .  S
O1021      C1029   1.267       .  A
O1022      C1029   1.258       .  A
C1023      O1030   1.259       .  A
C1023      O1024   1.264       .  A
C1023      C1225   1.496       .  S
C1025      O1027   1.261       .  A
C1025      O1475   1.262   1_545  A
C1025      C1072   1.449       .  S
O1027     In1463   2.194   1_545  S
O1028     In1463   2.221       .  S
O1028      C1464   1.252       .  A
C1029      C1060   1.492       .  S
O1031      C1469   1.262       .  A
In1032     O1034   2.270       .  S
In1032     O1043   2.244       .  S
In1032     O1037   2.288       .  S
In1032     O1039   2.286       .  S
C1033      O1039   1.273       .  A
O1034      C1042   1.270       .  A
C1036      O1043   1.261       .  A
C1036      O1037   1.264       .  A
C1036      C1180   1.504       .  S
C1038      O1040   1.260       .  A
C1038      O1044   1.259       .  A
C1038      C1048   1.447       .  S
C1042      C1324   1.481       .  S
C1045      C1046   1.400       .  A
C1045      C1050   1.408       .  A
C1046      C1047   1.392       .  A
C1046      H1051   1.085       .  S
C1047      C1048   1.405       .  A
C1047      C1054   1.444       .  S
C1048      C1049   1.399       .  A
C1049      C1050   1.390       .  A
C1049      H1052   1.085       .  S
C1050      C1053   1.446       .  S
C1053      N1055   1.157       .  T
C1054      N1056   1.157       .  T
C1057      C1502   1.407   1_545  A
C1057      C1062   1.409   1_556  A
C1058      C1501   1.407       .  A
C1058      C1059   1.402   1_556  A
C1058      H1063   1.085       .  S
C1059      C1060   1.413       .  A
C1059      C1066   1.444       .  S
C1060      C1505   1.411       .  A
C1061      C1504   1.411   1_545  A
C1061      C1062   1.403       .  A
C1061      H1064   1.084       .  S
C1062      C1065   1.444   1_554  S
C1065      N1067   1.157       .  T
C1066      N1068   1.157       .  T
C1069      C1070   1.403       .  A
C1069      C1074   1.413       .  A
C1070      C1071   1.388       .  A
C1070      H1075   1.085       .  S
C1071      C1072   1.405       .  A
C1071      C1078   1.446       .  S
C1072      C1073   1.397       .  A
C1073      C1074   1.392       .  A
C1073      H1076   1.085   1_545  S
C1074      C1077   1.444       .  S
C1077      N1079   1.157       .  T
C1078      N1080   1.157       .  T
C1081      C1082   1.408       .  A
C1081      C1086   1.416       .  A
C1082      C1083   1.402       .  A
C1082      H1087   1.084       .  S
C1083      C1084   1.410       .  A
C1083      C1090   1.444       .  S
C1084      C1085   1.404       .  A
C1085      C1086   1.403       .  A
C1085      H1088   1.085       .  S
C1086      C1089   1.444       .  S
C1089      N1091   1.157       .  T
C1090      N1092   1.157       .  T
C1093      C1094   1.399       .  A
C1093      C1098   1.402       .  A
C1094      C1095   1.392       .  A
C1094      H1099   1.085       .  S
C1095      C1096   1.410       .  A
C1095      C1102   1.445       .  S
C1096      C1097   1.403       .  A
C1097      C1098   1.387       .  A
C1097      H1100   1.085       .  S
C1098      C1101   1.445       .  S
C1102      N1104   1.157       .  T
C1105      C1110   1.410       .  A
C1106      C1107   1.404   1_455  A
C1106      H1111   1.085   1_455  S
C1107      C1114   1.443       .  S
C1108      C1109   1.409       .  A
C1109      C1110   1.401       .  A
C1109      H1112   1.085       .  S
C1110      C1113   1.443       .  S
C1113      N1115   1.157       .  T
C1114      N1116   1.157       .  T
C1117      C1118   1.408       .  A
C1117      C1122   1.413       .  A
C1118      C1119   1.418       .  A
C1118      H1123   1.084       .  S
C1119      C1120   1.417       .  A
C1119      C1126   1.441       .  S
C1120      C1121   1.404       .  A
C1121      C1122   1.398       .  A
C1121      H1124   1.085       .  S
C1122      C1125   1.445       .  S
C1125      N1127   1.157       .  T
C1126      N1128   1.157       .  T
C1129      C1130   1.399       .  A
C1130      C1131   1.401       .  A
C1130      H1135   1.084       .  S
C1131      C1138   1.445       .  S
C1132      C1133   1.399       .  A
C1133      C1134   1.402       .  A
C1133      H1136   1.084       .  S
C1134      C1137   1.445       .  S
C1137      N1139   1.157       .  T
C1138      N1140   1.157       .  T
C1141      C1586   1.411       .  A
C1141      C1146   1.412       .  A
C1142      C1585   1.411   1_545  A
C1142      C1143   1.401       .  A
C1142      H1147   1.084       .  S
C1143      C1144   1.406       .  A
C1143      C1150   1.444       .  S
C1144      C1589   1.406   1_545  A
C1145      C1588   1.406       .  A
C1145      C1146   1.402       .  A
C1145      H1148   1.084       .  S
C1146      C1149   1.443       .  S
C1149      N1151   1.157       .  T
C1150      N1152   1.157       .  T
C1153      C1158   1.419       .  A
C1154      C1155   1.404       .  A
C1154      H1159   1.085       .  S
C1155      C1156   1.420       .  A
C1155      C1162   1.445       .  S
C1156      C1157   1.407       .  A
C1157      H1160   1.084       .  S
C1158      C1161   1.443       .  S
C1161      N1163   1.157       .  T
C1162      N1164   1.157       .  T
C1165      C1610   1.409       .  A
C1165      C1170   1.410       .  A
C1166      C1609   1.409   1_545  A
C1166      C1167   1.401       .  A
C1166      H1171   1.084       .  S
C1167      C1168   1.412       .  A
C1167      C1174   1.444       .  S
C1168      C1613   1.412       .  A
C1169      C1612   1.412       .  A
C1169      C1170   1.404       .  A
C1169      H1172   1.084       .  S
C1170      C1173   1.444       .  S
C1173      N1175   1.157       .  T
C1174      N1176   1.157       .  T
C1177      C1178   1.402       .  A
C1177      C1182   1.410       .  A
C1178      C1179   1.401       .  A
C1178      H1183   1.085       .  S
C1179      C1180   1.419       .  A
C1179      C1186   1.445       .  S
C1180      C1181   1.414       .  A
C1181      C1182   1.417       .  A
C1181      H1184   1.084       .  S
C1182      C1185   1.441       .  S
C1185      N1187   1.157       .  T
C1186      N1188   1.158       .  T
C1189      C1190   1.400       .  A
C1189      C1194   1.407       .  A
C1190      C1191   1.389       .  A
C1190      H1195   1.085       .  S
C1191      C1192   1.412       .  A
C1191      C1198   1.445       .  S
C1192      C1193   1.405       .  A
C1193      C1194   1.391       .  A
C1193      H1196   1.085       .  S
C1194      C1197   1.445       .  S
C1197      N1199   1.157   1_545  T
C1198      N1200   1.157   1_655  T
C1201      C1202   1.405       .  A
C1201      C1650   1.414       .  A
C1202      C1647   1.402   1_556  A
C1202      H1207   1.085       .  S
C1203      C1646   1.402   1_544  A
C1203      C1204   1.413       .  A
C1203      C1210   1.444       .  S
C1204      C1205   1.404       .  A
C1205      C1206   1.402   1_544  A
C1205      H1208   1.084       .  S
C1206      C1645   1.414       .  A
C1206      C1209   1.444       .  S
C1209      N1211   1.157       .  T
C1210      N1656   1.157       .  T
N1212      C1654   1.157       .  T
C1213      C1214   1.399       .  A
C1213      C1218   1.416       .  A
C1214      C1215   1.403       .  A
C1214      H1219   1.085       .  S
C1215      C1216   1.420       .  A
C1215      C1222   1.444       .  S
C1216      C1217   1.402       .  A
C1217      C1218   1.401       .  A
C1217      H1220   1.084       .  S
C1218      C1221   1.445       .  S
C1221      N1223   1.157       .  T
C1222      N1224   1.157       .  T
C1225      C1226   1.411       .  A
C1225      C1230   1.418       .  A
C1226      H1231   1.083       .  S
C1227      C1228   1.411       .  A
C1227      C1234   1.441       .  S
C1228      C1229   1.401       .  A
C1229      H1232   1.085       .  S
C1230      C1233   1.446       .  S
C1233      N1235   1.157       .  T
C1234      N1236   1.157       .  T
C1237      C1238   1.401       .  A
C1237      C1242   1.409       .  A
C1238      C1239   1.390       .  A
C1238      H1243   1.083       .  S
C1239      C1240   1.404       .  A
C1239      C1246   1.446       .  S
C1240      C1241   1.396       .  A
C1241      C1242   1.391       .  A
C1241      H1244   1.085       .  S
C1242      C1245   1.444       .  S
C1245      N1247   1.157       .  T
C1246      N1248   1.157       .  T
C1249      C1250   1.402       .  A
C1249      C1254   1.419       .  A
C1250      C1251   1.404       .  A
C1250      H1255   1.084       .  S
C1251      C1252   1.417       .  A
C1251      C1258   1.444       .  S
C1252      C1253   1.400       .  A
C1253      C1254   1.401       .  A
C1253      H1256   1.085       .  S
C1254      C1257   1.445       .  S
C1257      N1259   1.157       .  T
C1258      N1260   1.157       .  T
C1261      C1262   1.405       .  A
C1261      C1266   1.420       .  A
C1262      C1707   1.407   1_545  A
C1262      H1267   1.085       .  S
C1263      C1706   1.407       .  A
C1263      C1264   1.418       .  A
C1263      C1270   1.444       .  S
C1264      C1709   1.405       .  A
C1265      C1708   1.405   1_545  A
C1265      C1266   1.410       .  A
C1265      H1268   1.085       .  S
C1266      C1269   1.444       .  S
C1269      N1271   1.157       .  T
C1270      N1272   1.157       .  T
C1273      C1274   1.401       .  A
C1273      C1278   1.410       .  A
C1274      C1275   1.403       .  A
C1274      H1279   1.085       .  S
C1275      C1276   1.418       .  A
C1275      C1282   1.444       .  S
C1276      C1277   1.407       .  A
C1277      C1278   1.404       .  A
C1277      H1280   1.084       .  S
C1278      C1281   1.445       .  S
C1281      N1283   1.157       .  T
C1282      N1284   1.157       .  T
C1285      C1286   1.404       .  A
C1285      C1290   1.422       .  A
C1286      C1287   1.401       .  A
C1286      H1291   1.084       .  S
C1287      C1288   1.414       .  A
C1287      C1294   1.445       .  S
C1289      H1292   1.085       .  S
C1293      N1295   1.157       .  T
C1294      N1296   1.157       .  T
C1297      C1742   1.406       .  A
C1297      C1302   1.421       .  A
C1298      C1741   1.406   1_545  A
C1298      C1299   1.402       .  A
C1298      H1303   1.085       .  S
C1299      C1300   1.415       .  A
C1299      C1306   1.446       .  S
C1300      C1301   1.405       .  A
C1301      C1746   1.416   1_545  A
C1301      H1304   1.084       .  S
C1302      C1745   1.416       .  A
C1302      C1305   1.442       .  S
C1305      N1307   1.157       .  T
C1306      N1308   1.157       .  T
C1309      C1310   1.404       .  A
C1309      C1314   1.413       .  A
C1310      C1311   1.390       .  A
C1310      H1315   1.084       .  S
C1311      C1312   1.407       .  A
C1311      C1318   1.446       .  S
C1312      C1313   1.399       .  A
C1313      C1314   1.391       .  A
C1313      H1316   1.085       .  S
C1314      C1317   1.445       .  S
C1317      N1319   1.157       .  T
C1318      N1320   1.157       .  T
C1321      C1326   1.412       .  A
C1322      C1323   1.403       .  A
C1322      H1327   1.084       .  S
C1323      C1324   1.406       .  A
C1323      C1330   1.443       .  S
C1325      C1326   1.402       .  A
C1325      H1328   1.085       .  S
C1326      C1329   1.443       .  S
C1329      N1331   1.157       .  T
C1330      N1332   1.157       .  T
In1333     O1335   2.274       .  S
In1333     O1336   2.221       .  S
In1333     O1344   2.258       .  S
In1333     O1338   2.292       .  S
In1333     O1340   2.277       .  S
In1333     O1342   2.216       .  S
In1333     O1345   2.206       .  S
C1334      O1340   1.268       .  A
C1334      O1342   1.254       .  A
C1334      C1729   1.489       .  S
O1335      C1343   1.269       .  A
O1336      C1343   1.257       .  A
C1337      O1344   1.260       .  A
C1337      O1338   1.261       .  A
C1337      C1741   1.505       .  S
C1339      O1341   1.261       .  A
C1339      C1753   1.464   1_455  S
C1343      C1765   1.492       .  S
In1346     O1348   2.265       .  S
In1346     O1349   2.230       .  S
In1346     O1357   2.281       .  S
In1346     O1351   2.265       .  S
In1346     O1353   2.274       .  S
In1346     O1354   2.211       .  S
In1346     O1355   2.229       .  S
In1346     O1358   2.219       .  S
C1347      O1353   1.267       .  A
C1347      O1355   1.254       .  A
C1347      C1696   1.485       .  S
O1348      C1356   1.267       .  A
O1349      C1356   1.260       .  A
C1350      O1357   1.261       .  A
C1350      O1351   1.260       .  A
C1350      C1708   1.498       .  S
C1352      O1354   1.258       .  A
C1352      O1358   1.259       .  A
C1352      C1756   1.454       .  S
C1356      C1720   1.490       .  S
In1359     O1361   2.277       .  S
In1359     O1362   2.228       .  S
In1359     O1370   2.256       .  S
In1359     O1364   2.294       .  S
In1359     O1366   2.270       .  S
In1359     O1367   2.209       .  S
In1359     O1368   2.221       .  S
In1359     O1371   2.212       .  S
C1360      O1366   1.270       .  A
C1360      O1368   1.257       .  A
C1360      C1660   1.487       .  S
O1361      C1369   1.265       .  A
O1362      C1369   1.255       .  A
C1363      O1370   1.256       .  A
C1363      O1364   1.259       .  A
C1363      C1672   1.488       .  S
C1365      O1367   1.259       .  A
C1365      O1371   1.261       .  A
C1365      C1681   1.453       .  S
C1369      C1717   1.476       .  S
In1372     O1374   2.258       .  S
In1372     O1375   2.223       .  S
In1372     O1383   2.222       .  S
In1372     O1377   2.318       .  S
In1372     O1379   2.286       .  S
In1372     O1384   2.221       .  S
C1373      O1379   1.271       .  A
C1373      C1609   1.489       .  S
O1374      C1382   1.266       .  A
O1375      C1382   1.257       .  A
C1376      O1383   1.254       .  A
C1376      O1377   1.270       .  A
C1376      C1621   1.492       .  S
C1378      O1380   1.261       .  A
C1378      C1633   1.456       .  S
C1382      C1645   1.482       .  S
In1385     O1387   2.222       .  S
In1385     O1396   2.215       .  S
In1385     O1390   2.269       .  S
In1385     O1392   2.280       .  S
In1385     O1393   2.218       .  S
In1385     O1394   2.255       .  S
In1385     O1397   2.256       .  S
C1386      O1392   1.262       .  A
C1386      O1394   1.260       .  A
C1386      C1597   1.502       .  S
O1388      C1395   1.257       .  A
C1389      O1396   1.257       .  A
C1389      O1390   1.271       .  A
C1389      C1588   1.479       .  S
C1391      O1393   1.260       .  A
C1391      O1397   1.268       .  A
C1391      C1648   1.480       .  S
C1395      C1684   1.441   1_545  S
In1398     O1400   2.284       .  S
In1398     O1401   2.205       .  S
In1398     O1409   2.246       .  S
In1398     O1403   2.308       .  S
In1398     O1405   2.271       .  S
In1398     O1407   2.226       .  S
In1398     O1410   2.208       .  S
C1399      O1405   1.266       .  A
C1399      O1407   1.256       .  A
C1399      C1549   1.488       .  S
O1400      C1408   1.270       .  A
O1401      C1408   1.254       .  A
C1402      O1409   1.255       .  A
C1402      O1403   1.264       .  A
C1402      C1561   1.493       .  S
C1404      O1406   1.262       .  A
C1404      C1636   1.464   1_455  S
C1408      C1576   1.484       .  S
In1411     O1413   2.261       .  S
In1411     O1422   2.272       .  S
In1411     O1416   2.269       .  S
In1411     O1418   2.281       .  S
C1412      O1418   1.268       .  A
O1413      C1421   1.270       .  A
C1415      O1422   1.262       .  A
C1415      O1416   1.261       .  A
C1415      C1705   1.501       .  S
C1417      O1419   1.257       .  A
C1417      O1423   1.259       .  A
C1417      C1537   1.443       .  S
C1421      C1573   1.484       .  S
In1424     O1426   2.264       .  S
In1424     O1427   2.221       .  S
In1424     O1435   2.228       .  S
In1424     O1429   2.324       .  S
In1424     O1431   2.287       .  S
In1424     O1432   2.188       .  S
In1424     O1433   2.216       .  S
In1424     O1436   2.215       .  S
C1425      O1431   1.270       .  A
C1425      O1433   1.255       .  A
C1425      C1693   1.487       .  S
O1426      C1434   1.265       .  A
O1427      C1434   1.256       .  A
C1428      O1435   1.252       .  A
C1428      O1429   1.269       .  A
C1428      C1744   1.494       .  S
C1430      O1432   1.260       .  A
C1430      O1436   1.263       .  A
C1430      C1540   1.456       .  S
C1434      C1525   1.487       .  S
In1437     O1439   2.258       .  S
In1437     O1440   2.223       .  S
In1437     O1448   2.295       .  S
In1437     O1442   2.247       .  S
In1437     O1444   2.277       .  S
In1437     O1445   2.213       .  S
In1437     O1446   2.210       .  S
In1437     O1449   2.204       .  S
C1438      O1444   1.271       .  A
C1438      O1446   1.257       .  A
C1438      C1657   1.481       .  S
O1439      C1447   1.266       .  A
O1440      C1447   1.259       .  A
C1441      O1448   1.263       .  A
C1441      O1442   1.256       .  A
C1441      C1600   1.502       .  S
C1443      O1445   1.258       .  A
C1443      O1449   1.259       .  A
C1443      C1513   1.461       .  S
C1447      C1528   1.480       .  S
In1450     O1452   2.274       .  S
In1450     O1453   2.221       .  S
In1450     O1461   2.239       .  S
In1450     O1455   2.304       .  S
In1450     O1457   2.266       .  S
In1450     O1459   2.218       .  S
In1450     O1462   2.206       .  S
C1451      O1457   1.269       .  A
C1451      O1459   1.258       .  A
C1451      C1612   1.492       .  S
O1452      C1460   1.268       .  A
O1453      C1460   1.257       .  A
C1454      O1461   1.257       .  A
C1454      O1455   1.263       .  A
C1454      C1564   1.498       .  S
C1456      O1458   1.259       .  A
C1456      C1489   1.449   1_545  S
C1460      C1501   1.485       .  S
In1463     O1465   2.266       .  S
In1463     O1466   2.225       .  S
In1463     O1474   2.242       .  S
In1463     O1468   2.292       .  S
In1463     O1470   2.280       .  S
In1463     O1475   2.220       .  S
C1464      O1470   1.266       .  A
C1464      C1585   1.488       .  S
O1465      C1473   1.267       .  A
O1466      C1473   1.258       .  A
C1467      O1474   1.259       .  A
C1467      O1468   1.264       .  A
C1467      C1669   1.496       .  S
C1469      O1471   1.261       .  A
C1469      C1516   1.449       .  S
C1473      C1504   1.492       .  S
In1476     O1478   2.270       .  S
In1476     O1487   2.244       .  S
In1476     O1481   2.288       .  S
In1476     O1483   2.286       .  S
C1477      O1483   1.273       .  A
O1478      C1486   1.270       .  A
C1480      O1487   1.261       .  A
C1480      O1481   1.264       .  A
C1480      C1624   1.504       .  S
C1482      O1484   1.260       .  A
C1482      O1488   1.259       .  A
C1482      C1492   1.447       .  S
C1486      C1768   1.481       .  S
C1489      C1490   1.400       .  A
C1489      C1494   1.408       .  A
C1490      C1491   1.392       .  A
C1490      H1495   1.085       .  S
C1491      C1492   1.405       .  A
C1491      C1498   1.444       .  S
C1492      C1493   1.399       .  A
C1493      C1494   1.390       .  A
C1493      H1496   1.085       .  S
C1494      C1497   1.446       .  S
C1497      N1499   1.157       .  T
C1498      N1500   1.157       .  T
C1501      C1506   1.409   1_556  A
C1502      C1503   1.402   1_556  A
C1502      H1507   1.085       .  S
C1503      C1504   1.413       .  A
C1503      C1510   1.444       .  S
C1505      C1506   1.403       .  A
C1505      H1508   1.084       .  S
C1506      C1509   1.444   1_554  S
C1509      N1511   1.157       .  T
C1510      N1512   1.157       .  T
C1513      C1514   1.403       .  A
C1513      C1518   1.413       .  A
C1514      C1515   1.388       .  A
C1514      H1519   1.085       .  S
C1515      C1516   1.405       .  A
C1515      C1522   1.446       .  S
C1516      C1517   1.397       .  A
C1517      C1518   1.392       .  A
C1517      H1520   1.085       .  S
C1518      C1521   1.444       .  S
C1521      N1523   1.157       .  T
C1522      N1524   1.157       .  T
C1525      C1526   1.408       .  A
C1525      C1530   1.416       .  A
C1526      C1527   1.402       .  A
C1526      H1531   1.084       .  S
C1527      C1528   1.410       .  A
C1527      C1534   1.444       .  S
C1528      C1529   1.404       .  A
C1529      C1530   1.403       .  A
C1529      H1532   1.085       .  S
C1530      C1533   1.444       .  S
C1533      N1535   1.157       .  T
C1534      N1536   1.157       .  T
C1537      C1538   1.399       .  A
C1537      C1542   1.402       .  A
C1538      C1539   1.392       .  A
C1538      H1543   1.085       .  S
C1539      C1540   1.410       .  A
C1539      C1546   1.445       .  S
C1540      C1541   1.403       .  A
C1541      C1542   1.387       .  A
C1541      H1544   1.085       .  S
C1542      C1545   1.445       .  S
C1546      N1548   1.157       .  T
C1549      C1554   1.410       .  A
C1550      C1551   1.404   1_455  A
C1550      H1555   1.085   1_455  S
C1551      C1558   1.443       .  S
C1552      C1553   1.409       .  A
C1553      C1554   1.401       .  A
C1553      H1556   1.085       .  S
C1554      C1557   1.443       .  S
C1557      N1559   1.157       .  T
C1558      N1560   1.157       .  T
C1561      C1562   1.408       .  A
C1561      C1566   1.413       .  A
C1562      C1563   1.418       .  A
C1562      H1567   1.084       .  S
C1563      C1564   1.417       .  A
C1563      C1570   1.441       .  S
C1564      C1565   1.404       .  A
C1565      C1566   1.398       .  A
C1565      H1568   1.085       .  S
C1566      C1569   1.445       .  S
C1569      N1571   1.157       .  T
C1570      N1572   1.157       .  T
C1573      C1574   1.399       .  A
C1574      C1575   1.401       .  A
C1574      H1579   1.084       .  S
C1575      C1582   1.445       .  S
C1576      C1577   1.399       .  A
C1577      C1578   1.402       .  A
C1577      H1580   1.084       .  S
C1578      C1581   1.445       .  S
C1581      N1583   1.157       .  T
C1582      N1584   1.157       .  T
C1585      C1590   1.412       .  A
C1586      C1587   1.401       .  A
C1586      H1591   1.084       .  S
C1587      C1588   1.406       .  A
C1587      C1594   1.444       .  S
C1589      C1590   1.402       .  A
C1589      H1592   1.084       .  S
C1590      C1593   1.443       .  S
C1593      N1595   1.157       .  T
C1594      N1596   1.157       .  T
C1597      C1602   1.419       .  A
C1598      C1599   1.404       .  A
C1598      H1603   1.085       .  S
C1599      C1600   1.420       .  A
C1599      C1606   1.445       .  S
C1600      C1601   1.407       .  A
C1601      H1604   1.084       .  S
C1602      C1605   1.443       .  S
C1605      N1607   1.157       .  T
C1606      N1608   1.157       .  T
C1609      C1614   1.410       .  A
C1610      C1611   1.401       .  A
C1610      H1615   1.084       .  S
C1611      C1612   1.412       .  A
C1611      C1618   1.444       .  S
C1613      C1614   1.404   1_545  A
C1613      H1616   1.084   1_545  S
C1614      C1617   1.444       .  S
C1617      N1619   1.157       .  T
C1618      N1620   1.157       .  T
C1621      C1622   1.402       .  A
C1621      C1626   1.410       .  A
C1622      C1623   1.401       .  A
C1622      H1627   1.085       .  S
C1623      C1624   1.419       .  A
C1623      C1630   1.445       .  S
C1624      C1625   1.414       .  A
C1625      C1626   1.417       .  A
C1625      H1628   1.084       .  S
C1626      C1629   1.441       .  S
C1629      N1631   1.157       .  T
C1630      N1632   1.158       .  T
C1633      C1634   1.400       .  A
C1633      C1638   1.407       .  A
C1634      C1635   1.389       .  A
C1634      H1639   1.085       .  S
C1635      C1636   1.412       .  A
C1635      C1642   1.445       .  S
C1636      C1637   1.405       .  A
C1637      C1638   1.391       .  A
C1637      H1640   1.085       .  S
C1638      C1641   1.445       .  S
C1641      N1643   1.157       .  T
C1642      N1644   1.157   1_655  T
C1645      C1646   1.405       .  A
C1646      H1651   1.085       .  S
C1647      C1648   1.413       .  A
C1647      C1654   1.444       .  S
C1648      C1649   1.404       .  A
C1649      C1650   1.402   1_554  A
C1649      H1652   1.084       .  S
C1650      C1653   1.444       .  S
C1653      N1655   1.157       .  T
C1657      C1658   1.399       .  A
C1657      C1662   1.416       .  A
C1658      C1659   1.403       .  A
C1658      H1663   1.085       .  S
C1659      C1660   1.420       .  A
C1659      C1666   1.444       .  S
C1660      C1661   1.402       .  A
C1661      C1662   1.401       .  A
C1661      H1664   1.084       .  S
C1662      C1665   1.445       .  S
C1665      N1667   1.157       .  T
C1666      N1668   1.157       .  T
C1669      C1670   1.411       .  A
C1669      C1674   1.418       .  A
C1670      H1675   1.083       .  S
C1671      C1672   1.411       .  A
C1671      C1678   1.441       .  S
C1672      C1673   1.401       .  A
C1673      H1676   1.085       .  S
C1674      C1677   1.446       .  S
C1677      N1679   1.157       .  T
C1678      N1680   1.157       .  T
C1681      C1682   1.401       .  A
C1681      C1686   1.409       .  A
C1682      C1683   1.390       .  A
C1682      H1687   1.083       .  S
C1683      C1684   1.404       .  A
C1683      C1690   1.446       .  S
C1684      C1685   1.396       .  A
C1685      C1686   1.391       .  A
C1685      H1688   1.085   1_565  S
C1686      C1689   1.444       .  S
C1689      N1691   1.157       .  T
C1690      N1692   1.157       .  T
C1693      C1694   1.402       .  A
C1693      C1698   1.419       .  A
C1694      C1695   1.404       .  A
C1694      H1699   1.084       .  S
C1695      C1696   1.417       .  A
C1695      C1702   1.444       .  S
C1696      C1697   1.400       .  A
C1697      C1698   1.401       .  A
C1697      H1700   1.085       .  S
C1698      C1701   1.445       .  S
C1701      N1703   1.157       .  T
C1702      N1704   1.157       .  T
C1705      C1706   1.405       .  A
C1705      C1710   1.420       .  A
C1706      H1711   1.085       .  S
C1707      C1708   1.418       .  A
C1707      C1714   1.444       .  S
C1709      C1710   1.410       .  A
C1709      H1712   1.085       .  S
C1710      C1713   1.444       .  S
C1713      N1715   1.157       .  T
C1714      N1716   1.157       .  T
C1717      C1718   1.401       .  A
C1717      C1722   1.410       .  A
C1718      C1719   1.403       .  A
C1718      H1723   1.085       .  S
C1719      C1720   1.418       .  A
C1719      C1726   1.444       .  S
C1720      C1721   1.407       .  A
C1721      C1722   1.404       .  A
C1721      H1724   1.084       .  S
C1722      C1725   1.445       .  S
C1725      N1727   1.157       .  T
C1726      N1728   1.157       .  T
C1729      C1730   1.404       .  A
C1729      C1734   1.422       .  A
C1730      C1731   1.401       .  A
C1730      H1735   1.084       .  S
C1731      C1732   1.414       .  A
C1731      C1738   1.445       .  S
C1733      H1736   1.085       .  S
C1737      N1739   1.157       .  T
C1738      N1740   1.157       .  T
C1741      C1746   1.421       .  A
C1742      C1743   1.402       .  A
C1742      H1747   1.085       .  S
C1743      C1744   1.415       .  A
C1743      C1750   1.446       .  S
C1744      C1745   1.405       .  A
C1745      H1748   1.084       .  S
C1746      C1749   1.442       .  S
C1749      N1751   1.157       .  T
C1750      N1752   1.157       .  T
C1753      C1754   1.404       .  A
C1753      C1758   1.413       .  A
C1754      C1755   1.390       .  A
C1754      H1759   1.084       .  S
C1755      C1756   1.407       .  A
C1755      C1762   1.446       .  S
C1756      C1757   1.399       .  A
C1757      C1758   1.391       .  A
C1757      H1760   1.085       .  S
C1758      C1761   1.445       .  S
C1761      N1763   1.157       .  T
C1762      N1764   1.157       .  T
C1765      C1770   1.412       .  A
C1766      C1767   1.403       .  A
C1766      H1771   1.084       .  S
C1767      C1768   1.406       .  A
C1767      C1774   1.443       .  S
C1769      C1770   1.402       .  A
C1769      H1772   1.085       .  S
C1770      C1773   1.443       .  S
C1773      N1775   1.157       .  T
C1774      N1776   1.157       .  T
