geometry optimzed in LAMMPS
_audit_creation_date              2020-12-01 
_audit_creation_method            'lammps2cif' 
_symmetry_space_group_name_H-M    'P1' 
_symmetry_Int_Tables_number       1 
_symmetry_cell_setting            triclinic 
loop_ 
_symmetry_equiv_pos_as_xyz 
  x,y,z 
_cell_length_a                    48.29533709 
_cell_length_b                    47.899237628905254 
_cell_length_c                    80.38397552772949 
_cell_angle_alpha                 89.6709094105214 
_cell_angle_beta                  90.49951222449877 
_cell_angle_gamma                 90.2899600801558 
loop_ 
_atom_site_label 
_atom_site_type_symbol 
_atom_site_fract_x 
_atom_site_fract_y 
_atom_site_fract_z 
_atom_site_charge 
In1        In  0.68197970  0.63710831  0.89201881     1.36900
C2          C  0.63557140  0.61372350  0.88023381     0.78200
O3          O  0.66005111  0.67809146  0.89484818    -0.60200
O4          O  0.69193041  0.67523140  0.87694806    -0.51100
C5          C  0.70209630  0.64146300  0.92287791     0.70900
O6          O  0.67904461  0.62987931  0.91983664    -0.46000
C7          C  0.71973720  0.60384884  0.87900453     0.75600
O8          O  0.64013015  0.61635118  0.89564116    -0.57900
O9          O  0.71494945  0.62802338  0.87350032    -0.48000
O10         O  0.65473242  0.62257466  0.87112030    -0.54300
C11         C  0.67372932  0.69010046  0.88356587     0.85800
O12         O  0.71429861  0.65101459  0.91027313    -0.56200
O13         O  0.70520239  0.59655241  0.89128521    -0.59500
In14       In  0.27628563  0.81022546  0.91643853     1.36900
C15         C  0.32262017  0.83697841  0.90798527     0.78200
O16         O  0.29660505  0.76894550  0.91314044    -0.60200
O17         O  0.26643470  0.78133339  0.89521621    -0.51100
C18         C  0.25743647  0.79792969  0.94662297     0.70900
O19         O  0.27809103  0.81373935  0.94442077    -0.46000
C20         C  0.23790997  0.84728033  0.90897558     0.75600
O21         O  0.32199093  0.81991769  0.92001069    -0.57900
O22         O  0.23935482  0.82414239  0.90154826    -0.48000
O23         O  0.29985044  0.84028258  0.90059187    -0.54300
C24         C  0.28365529  0.76317379  0.89989786     0.85800
O25         O  0.24759432  0.78735267  0.93354119    -0.56200
O26         O  0.25573806  0.85105231  0.92030011    -0.59500
In27       In  0.55344374  0.92474100  0.84688558     1.36900
C28         C  0.58483444  0.88483016  0.86006142     0.78200
O29         O  0.58990452  0.95347658  0.84735531    -0.60200
O30         O  0.55407742  0.96563301  0.86059710    -0.51100
C31         C  0.54682650  0.93802737  0.81492829     0.70900
O32         O  0.56611244  0.92249931  0.82012062    -0.46000
C33         C  0.50580497  0.90368331  0.85754570     0.75600
O34         O  0.57781957  0.88516709  0.84489812    -0.57900
O35         O  0.51607456  0.92594580  0.86331730    -0.48000
O36         O  0.57644550  0.90529684  0.86833755    -0.54300
C37         C  0.57854929  0.97148600  0.85637527     0.85800
O38         O  0.53035907  0.94595126  0.82600598    -0.56200
O39         O  0.51915366  0.89309993  0.84578121    -0.59500
In40       In  0.38376300  0.52776026  0.84616751     1.36900
C41         C  0.35892990  0.57035766  0.86079957     0.78200
O42         O  0.34379664  0.50477364  0.84273674    -0.60200
O43         O  0.37255083  0.48908668  0.86063004    -0.51100
C44         C  0.38692699  0.51701852  0.81392278     0.70900
O45         O  0.37345963  0.53734881  0.81951320    -0.46000
C46         C  0.43609922  0.53518723  0.85617102     0.75600
O47         O  0.36692700  0.57150792  0.84591387    -0.57900
O48         O  0.42165676  0.51457378  0.86073776    -0.48000
O49         O  0.36361542  0.54754885  0.86809603    -0.54300
C50         C  0.34923997  0.48641519  0.85352828     0.85800
O51         O  0.39966666  0.50281813  0.82479638    -0.56200
O52         O  0.42392307  0.55169641  0.84630977    -0.59500
In53       In  0.05907397  0.02819942  0.85649590     1.36900
C54         C  0.08200036  0.07295655  0.87067017     0.78200
O55         O  0.01985203  0.05245362  0.85695514    -0.60200
O56         O  0.02254402  0.01570864  0.87193271    -0.51100
C57         C  0.05700634  0.01839155  0.82383212     0.70900
O58         O  0.07890724  0.02612619  0.83113178    -0.46000
C59         C  0.08671608  0.98321825  0.86631520     0.75600
O60         O  0.07732594  0.07180626  0.85519727    -0.57900
O61         O  0.06066370  0.98355866  0.86538353    -0.48000
O62         O  0.07531251  0.05128931  0.87863466    -0.54300
C63         C  0.00817797  0.03628332  0.86722077     0.85800
O64         O  0.03618357  0.01690045  0.83304527    -0.56200
O65         O  0.09838719  0.00591798  0.86249723    -0.59500
In66       In  0.89783855  0.41234476  0.83819399     1.36900
C67         C  0.86964481  0.36519903  0.84410171     0.78200
O68         O  0.93179074  0.41219861  0.85777871    -0.60200
O69         O  0.93952730  0.39249980  0.83478563    -0.51100
C70         C  0.90124072  0.43433720  0.80781012     0.70900
O71         O  0.88493518  0.41469216  0.81146828    -0.46000
C72         C  0.86851085  0.45374591  0.85116043     0.75600
O73         O  0.88261642  0.36940857  0.83081346    -0.57900
O74         O  0.89212497  0.44711234  0.85666962    -0.48000
O75         O  0.87131018  0.38490925  0.85435076    -0.54300
C76         C  0.94855550  0.39866340  0.84904567     0.85800
O77         O  0.91680039  0.44225708  0.81959999    -0.56200
O78         O  0.86004740  0.43926476  0.83909449    -0.59500
In79       In  0.17617564  0.31467410  0.92187619     1.36900
C80         C  0.12754165  0.33841334  0.91465409     0.78200
O81         O  0.19882170  0.35557147  0.92299992    -0.60200
O82         O  0.21040516  0.32682562  0.90436511    -0.51100
C83         C  0.19826011  0.30436883  0.95193305     0.70900
O84         O  0.18091799  0.32353639  0.94933348    -0.46000
C85         C  0.16530869  0.26549537  0.90804846     0.75600
O86         O  0.13370676  0.32988337  0.92908001    -0.57900
O87         O  0.18371646  0.28187644  0.90263204    -0.48000
O88         O  0.14645678  0.33545363  0.90414263    -0.54300
C89         C  0.21443182  0.35031555  0.91098475     0.85800
O90         O  0.20340767  0.28977144  0.93935496    -0.56200
O91         O  0.15327777  0.27373410  0.92101248    -0.59500
In92       In  0.76979328  0.14200924  0.90827310     1.36900
C93         C  0.81727313  0.12513839  0.89542516     0.78200
O94         O  0.75584893  0.09893522  0.90196099    -0.60200
O95         O  0.72939351  0.13232349  0.89496328    -0.51100
C96         C  0.75696418  0.14007024  0.94032421     0.70900
O97         O  0.78013245  0.13244292  0.93491784    -0.46000
C98         C  0.77687968  0.19595836  0.90196436     0.75600
O99         O  0.81018100  0.11907357  0.91008765    -0.57900
O100        O  0.76240658  0.18042924  0.89264677    -0.48000
O101        O  0.80005294  0.13962214  0.88736861    -0.54300
C102        C  0.73357239  0.10632449  0.89508608     0.85800
O103        O  0.74028090  0.14880847  0.92931453    -0.56200
O104        O  0.78618425  0.18425838  0.91490104    -0.59500
In105      In  0.67246055  0.84638970  0.41817863     1.36900
C106        C  0.62696254  0.87306776  0.40802528     0.78200
O107        O  0.69485566  0.88590199  0.41115150    -0.60200
O108        O  0.70982579  0.84750539  0.40183100    -0.51100
C109        C  0.69231019  0.84463158  0.44928200     0.70900
O110        O  0.66932704  0.85538888  0.44553683    -0.46000
C111        C  0.65699340  0.79391071  0.41249284     0.75600
O112        O  0.64118144  0.85820496  0.39846921    -0.57900
O113        O  0.67361341  0.80691330  0.40322455    -0.48000
O114        O  0.63624570  0.87463287  0.42269152    -0.54300
C115        C  0.71259140  0.87363466  0.40242217     0.85800
O116        O  0.70529356  0.83486847  0.43711034    -0.56200
O117        O  0.64862352  0.80759428  0.42476393    -0.59500
In118      In  0.58066498  0.55436706  0.35058848     1.36900
C119        C  0.60145601  0.60442072  0.35740888     0.78200
O120        O  0.53954595  0.57467108  0.34614874    -0.60200
O121        O  0.54397479  0.54894887  0.36761393    -0.51100
C122        C  0.57499026  0.52911787  0.32120243     0.70900
O123        O  0.58842510  0.55159036  0.32297507    -0.46000
C124        C  0.61896189  0.52199704  0.36485526     0.75600
O125        O  0.59916588  0.59549362  0.34271259    -0.57900
O126        O  0.59353371  0.51949740  0.36813442    -0.48000
O127        O  0.59280097  0.58787070  0.36849518    -0.54300
C128        C  0.52836733  0.56445537  0.35892977     0.85800
O129        O  0.56453451  0.51968437  0.33439647    -0.56200
O130        O  0.62452580  0.54079492  0.35440855    -0.59500
In131      In  0.29032836  0.64720327  0.40886500     1.36900
C132        C  0.34049479  0.62442363  0.40651500     0.78200
O133        O  0.26864001  0.60601648  0.40581020    -0.60200
O134        O  0.25156831  0.64149054  0.39362201    -0.51100
C135        C  0.27020146  0.65390995  0.43944145     0.70900
O136        O  0.29037121  0.63816776  0.43646307    -0.46000
C137        C  0.29959882  0.69401384  0.39163611     0.75600
O138        O  0.33524009  0.64402679  0.41636076    -0.57900
O139        O  0.29402652  0.67109086  0.38476947    -0.48000
O140        O  0.31998185  0.61608999  0.39806959    -0.54300
C141        C  0.24974618  0.61569165  0.39653276     0.85800
O142        O  0.26074154  0.66659281  0.42688999    -0.56200
O143        O  0.30043329  0.69300517  0.40731249    -0.59500
In144      In  0.38736733  0.94039736  0.34568323     1.36900
C145        C  0.36534673  0.89461226  0.35902370     0.78200
O146        O  0.42484182  0.91513063  0.33936539    -0.60200
O147        O  0.42962383  0.94769060  0.35693798    -0.51100
C148        C  0.38316656  0.96064712  0.31482836     0.70900
O149        O  0.37394332  0.93685152  0.31880280    -0.46000
C150        C  0.35799032  0.97790984  0.36189887     0.75600
O151        O  0.36283327  0.90034683  0.34372940    -0.57900
O152        O  0.38396861  0.97641285  0.36334937    -0.48000
O153        O  0.37886878  0.91229134  0.36734692    -0.54300
C154        C  0.44071687  0.92774252  0.34933706     0.85800
O155        O  0.39482204  0.97370035  0.32651618    -0.56200
O156        O  0.34724933  0.96042532  0.35206741    -0.59500
In157      In  0.16039518  0.13077143  0.42321714     1.36900
C158        C  0.11263336  0.10780045  0.41351308     0.78200
O159        O  0.14426349  0.17419536  0.42561205    -0.60200
O160        O  0.16853515  0.16527582  0.40447133    -0.51100
C161        C  0.17701922  0.13760203  0.45465942     0.70900
O162        O  0.15226797  0.13207208  0.45076024    -0.46000
C163        C  0.19608536  0.09308106  0.41257237     0.75600
O164        O  0.12039550  0.10829532  0.42852714    -0.57900
O165        O  0.19962143  0.11893809  0.41023611    -0.48000
O166        O  0.12920905  0.11923875  0.40349613    -0.54300
C167        C  0.15469976  0.18308981  0.41231144     0.85800
O168        O  0.19328573  0.13923896  0.44250833    -0.56200
O169        O  0.17451499  0.08665399  0.42042655    -0.59500
In170      In  0.08483335  0.41761965  0.34378175     1.36900
C171        C  0.10376429  0.36636171  0.34972320     0.78200
O172        O  0.12949697  0.43101393  0.34400082    -0.60200
O173        O  0.10025382  0.45655983  0.35618874    -0.51100
C174        C  0.07362832  0.43818225  0.31349513     0.70900
O175        O  0.08657912  0.41562819  0.31567595    -0.46000
C176        C  0.03820743  0.41305909  0.36113168     0.75600
O177        O  0.09202856  0.37291185  0.33618696    -0.57900
O178        O  0.05963051  0.42472476  0.36685258    -0.48000
O179        O  0.10608854  0.38607615  0.35996256    -0.54300
C180        C  0.12519672  0.45272350  0.35235351     0.85800
O181        O  0.06619454  0.44983168  0.32670997    -0.56200
O182        O  0.04050784  0.40420358  0.34647747    -0.59500
In183      In  0.88223311  0.05434439  0.33406535     1.36900
C184        C  0.86425515  0.10490826  0.34228661     0.78200
O185        O  0.83786639  0.04254848  0.33765234    -0.60200
O186        O  0.86834190  0.01661365  0.34890538    -0.51100
C187        C  0.88325903  0.03429126  0.30323198     0.70900
O188        O  0.87653397  0.05906729  0.30647310    -0.46000
C189        C  0.93484789  0.05909926  0.34422514     0.75600
O190        O  0.86807843  0.09790550  0.32738687    -0.57900
O191        O  0.92689018  0.06577031  0.32980861    -0.48000
O192        O  0.86998426  0.08624271  0.35285191    -0.54300
C193        C  0.84290914  0.02136529  0.34648522     0.85800
O194        O  0.88970254  0.01968048  0.31578814    -0.56200
O195        O  0.91609909  0.04908515  0.35332558    -0.59500
In196      In  0.79505556  0.33595097  0.41561868     1.36900
C197        C  0.83811622  0.35910977  0.40023685     0.78200
O198        O  0.81687740  0.29521719  0.41935108    -0.60200
O199        O  0.78862048  0.29848989  0.39909804    -0.51100
C200        C  0.78714166  0.33469561  0.44829513     0.70900
O201        O  0.80461832  0.35072247  0.44155996    -0.46000
C202        C  0.75041508  0.36523567  0.40701456     0.75600
O203        O  0.83821871  0.35392434  0.41563436    -0.57900
O204        O  0.75205146  0.33925351  0.40479376    -0.48000
O205        O  0.81570131  0.35343070  0.39288030    -0.54300
C206        C  0.80596649  0.28363960  0.40689087     0.85800
O207        O  0.77378484  0.31937711  0.43830545    -0.56200
O208        O  0.77158086  0.37616065  0.41364727    -0.59500
In209      In  0.78755697  0.62443334  0.07727066     1.36900
C210        C  0.83430312  0.59582442  0.08143896     0.78200
O211        O  0.81771413  0.65944054  0.08162980    -0.60200
O212        O  0.77868672  0.66180184  0.09341037    -0.51100
C213        C  0.76511272  0.63685746  0.04765511     0.70900
O214        O  0.78305731  0.61806410  0.04964202    -0.46000
C215        C  0.74974449  0.59023094  0.09009904     0.75600
O216        O  0.82860898  0.60878691  0.06814935    -0.57900
O217        O  0.76035682  0.61007443  0.09824594    -0.48000
O218        O  0.81571343  0.59677493  0.09233304    -0.54300
C219        C  0.80227389  0.67266276  0.09131111     0.85800
O220        O  0.75941127  0.65002547  0.06069512    -0.56200
O221        O  0.75844244  0.58795962  0.07546359    -0.59500
In222      In  0.05966628  0.51397723  0.15678038     1.36900
C223        C  0.08269473  0.56436101  0.15304485     0.78200
O224        O  0.10192274  0.49591008  0.15360888    -0.60200
O225        O  0.06823262  0.47563611  0.14152965    -0.51100
C226        C  0.05519150  0.49080315  0.18690000     0.70900
O227        O  0.06786997  0.51351603  0.18437261    -0.46000
C228        C  0.00944345  0.52412774  0.14396962     0.75600
O229        O  0.07124818  0.55663078  0.16633430    -0.57900
O230        O  0.02958687  0.51710057  0.13508560    -0.48000
O231        O  0.08243919  0.54630500  0.14169448    -0.54300
C232        C  0.09387643  0.47595753  0.14459551     0.85800
O233        O  0.04431378  0.48023864  0.17407552    -0.56200
O234        O  0.01494888  0.52567327  0.15925706    -0.59500
In235      In  0.86405349  0.90858537  0.16039432     1.36900
C236        C  0.84138589  0.86329966  0.14675935     0.78200
O237        O  0.82203609  0.92748845  0.16280769    -0.60200
O238        O  0.84897162  0.94407228  0.14436533    -0.51100
C239        C  0.87115546  0.92089754  0.19254059     0.70900
O240        O  0.85965925  0.89857845  0.18779945    -0.46000
C241        C  0.91531886  0.90434922  0.14879975     0.75600
O242        O  0.85076357  0.86330453  0.16150053    -0.57900
O243        O  0.90221144  0.92703032  0.14835815    -0.48000
O244        O  0.84328697  0.88637093  0.13924923    -0.54300
C245        C  0.82548857  0.94487736  0.15116171     0.85800
O246        O  0.87936666  0.93645232  0.18088391    -0.56200
O247        O  0.90238785  0.88429421  0.15534022    -0.59500
In248      In  0.14941172  0.80842078  0.09450398     1.36900
C249        C  0.09839469  0.82665511  0.09938569     0.78200
O250        O  0.13407502  0.76539114  0.08887594    -0.60200
O251        O  0.15422479  0.77163716  0.11213850    -0.51100
C252        C  0.17969504  0.80663197  0.06713721     0.70900
O253        O  0.15492179  0.81502782  0.06697345    -0.46000
C254        C  0.17871107  0.84908226  0.10834453     0.75600
O255        O  0.10722470  0.82092421  0.08507212    -0.57900
O256        O  0.18096619  0.82391792  0.11303150    -0.48000
O257        O  0.11559194  0.82288153  0.11107888    -0.54300
C258        C  0.14205323  0.75480873  0.10244232     0.85800
O259        O  0.18860403  0.79884367  0.08116699    -0.56200
O260        O  0.16087569  0.85334735  0.09708858    -0.59500
In261      In  0.30648585  0.32556486  0.10132279     1.36900
C262        C  0.35358364  0.34142740  0.11641964     0.78200
O263        O  0.29117370  0.36922270  0.10442785    -0.60200
O264        O  0.26436609  0.33592973  0.11129691    -0.51100
C265        C  0.29446197  0.32577228  0.06877282     0.70900
O266        O  0.31203395  0.34218320  0.07514366    -0.46000
C267        C  0.30648601  0.27345193  0.11265322     0.75600
O268        O  0.35273223  0.33532799  0.10113781    -0.57900
O269        O  0.29087631  0.29202341  0.11838423    -0.48000
O270        O  0.33063285  0.33964983  0.12363770    -0.54300
C271        C  0.26795047  0.36195287  0.11002624     0.85800
O272        O  0.28427296  0.30841212  0.07885639    -0.56200
O273        O  0.32166855  0.28136229  0.10078202    -0.59500
In274      In  0.37368651  0.01968823  0.15679132     1.36900
C275        C  0.35283202  0.06616611  0.14359516     0.78200
O276        O  0.41282638  0.04540838  0.15722745    -0.60200
O277        O  0.41317179  0.00677553  0.14445261    -0.51100
C278        C  0.37633202  0.00335254  0.18847507     0.70900
O279        O  0.36128378  0.02341128  0.18375429    -0.46000
C280        C  0.34031461  0.97977408  0.14514787     0.75600
O281        O  0.35746582  0.06353902  0.15901492    -0.57900
O282        O  0.36494903  0.98271640  0.14034563    -0.48000
O283        O  0.35784370  0.04473810  0.13513900    -0.54300
C284        C  0.42636585  0.02846632  0.14857375     0.85800
O285        O  0.39041996  0.99249059  0.17716164    -0.56200
O286        O  0.33261319  0.99761793  0.15559640    -0.59500
In287      In  0.59736074  0.41721112  0.17391623     1.36900
C288        C  0.61419811  0.36513429  0.16836204     0.78200
O289        O  0.55379590  0.39984008  0.17326291    -0.60200
O290        O  0.56639818  0.42667792  0.15364005    -0.51100
C291        C  0.59634135  0.43846383  0.20464251     0.70900
O292        O  0.61386276  0.42088247  0.20002189    -0.46000
C293        C  0.63270127  0.45352216  0.16050679     0.75600
O294        O  0.60307747  0.37236882  0.18176515    -0.57900
O295        O  0.60695323  0.45443533  0.15784294    -0.48000
O296        O  0.61740438  0.38468307  0.15798248    -0.54300
C297        C  0.54766746  0.41121486  0.15951940     0.85800
O298        O  0.57852010  0.44472719  0.19370646    -0.56200
O299        O  0.64044678  0.43385205  0.16988705    -0.59500
In300      In  0.65628169  0.13124901  0.09057077     1.36900
C301        C  0.60607661  0.11381862  0.09945029     0.78200
O302        O  0.67597686  0.08974641  0.09586133    -0.60200
O303        O  0.69766229  0.12635137  0.10322298    -0.51100
C304        C  0.66735741  0.12913836  0.05810141     0.70900
O305        O  0.64674830  0.11693824  0.06439313    -0.46000
C306        C  0.65410051  0.18250422  0.10326133     0.75600
O307        O  0.60982723  0.13160101  0.08806597    -0.57900
O308        O  0.65337701  0.17788928  0.08786121    -0.48000
O309        O  0.62799360  0.10434682  0.10590977    -0.54300
C310        C  0.69732279  0.10007897  0.10261324     0.85800
O311        O  0.68223222  0.14225084  0.06839551    -0.56200
O312        O  0.65627048  0.16093845  0.11221645    -0.59500
In313      In  0.81589171  0.83008498  0.59378303     1.36900
C314        C  0.86602369  0.84627686  0.60417230     0.78200
O315        O  0.80266457  0.87490760  0.59489301    -0.60200
O316        O  0.77588882  0.84390790  0.60497661    -0.51100
C317        C  0.80255688  0.82736627  0.56152101     0.70900
O318        O  0.82533497  0.83706633  0.56668232    -0.46000
C319        C  0.81564631  0.78007316  0.60863325     0.75600
O320        O  0.86219181  0.83308610  0.59083059    -0.57900
O321        O  0.80578333  0.80149208  0.61529231    -0.48000
O322        O  0.84421930  0.85175049  0.61195957    -0.54300
C323        C  0.78016387  0.86950844  0.60211448     0.85800
O324        O  0.78685172  0.81839173  0.57283106    -0.56200
O325        O  0.82444504  0.78393219  0.59409303    -0.59500
In326      In  0.91112782  0.53965640  0.66103728     1.36900
C327        C  0.88695878  0.58323933  0.64661427     0.78200
O328        O  0.94884542  0.56619412  0.65687673    -0.60200
O329        O  0.94766720  0.52579507  0.64605004    -0.51100
C330        C  0.92066653  0.52785887  0.69308707     0.70900
O331        O  0.90290307  0.54562358  0.68851973    -0.46000
C332        C  0.87426355  0.50023129  0.65334214     0.75600
O333        O  0.89498627  0.58378311  0.66163927    -0.57900
O334        O  0.89889717  0.49949367  0.64820139    -0.48000
O335        O  0.89117796  0.56055159  0.63923334    -0.54300
C336        C  0.96084955  0.54839923  0.64798902     0.85800
O337        O  0.93387285  0.51699814  0.68138945    -0.56200
O338        O  0.86896208  0.52050922  0.66266235    -0.59500
In339      In  0.09640985  0.93007558  0.67221540     1.36900
C340        C  0.12073161  0.88837198  0.65613974     0.78200
O341        O  0.05861847  0.90343624  0.66811045    -0.60200
O342        O  0.05594617  0.94658060  0.66222612    -0.51100
C343        C  0.09325179  0.93832551  0.70498819     0.70900
O344        O  0.10855878  0.91986895  0.69880649    -0.46000
C345        C  0.12892862  0.97239098  0.66317930     0.75600
O346        O  0.11487526  0.88664827  0.67141358    -0.57900
O347        O  0.10617353  0.96720002  0.65598880    -0.48000
O348        O  0.11451135  0.91128506  0.64938468    -0.54300
C349        C  0.04402979  0.92311582  0.66242281     0.85800
O350        O  0.07891177  0.95163833  0.69447912    -0.56200
O351        O  0.13488149  0.95611318  0.67502005    -0.59500
In352      In  0.19689037  0.64848882  0.59560169     1.36900
C353        C  0.14450675  0.63240131  0.60007493     0.78200
O354        O  0.20857442  0.60344305  0.59854773    -0.60200
O355        O  0.23599594  0.63414904  0.60834323    -0.51100
C356        C  0.21785767  0.65472335  0.56518269     0.70900
O357        O  0.19652512  0.64024389  0.56801282    -0.46000
C358        C  0.19370739  0.69567252  0.61294991     0.75600
O359        O  0.15158780  0.64834644  0.58830283    -0.57900
O360        O  0.20378325  0.67355908  0.61893922    -0.48000
O361        O  0.16423831  0.62431116  0.60923361    -0.54300
C362        C  0.23095969  0.60854413  0.60614336     0.85800
O363        O  0.22793003  0.66662162  0.57778240    -0.56200
O364        O  0.18599485  0.69385191  0.59797706    -0.59500
In365      In  0.29902998  0.14908804  0.59862789     1.36900
C366        C  0.34168009  0.12257332  0.61300189     0.78200
O367        O  0.32094064  0.19076077  0.59956286    -0.60200
O368        O  0.28656437  0.18434700  0.61534412    -0.51100
C369        C  0.28751471  0.15549864  0.56638626     0.70900
O370        O  0.30948181  0.14418664  0.57161192    -0.46000
C371        C  0.25820111  0.11348677  0.60526877     0.75600
O372        O  0.34166361  0.12940720  0.59781516    -0.57900
O373        O  0.25978306  0.13737499  0.61176593    -0.48000
O374        O  0.32016899  0.12937398  0.62065431    -0.54300
C375        C  0.30565367  0.20054384  0.61073629     0.85800
O376        O  0.27215021  0.16489233  0.57764286    -0.56200
O377        O  0.27734090  0.10794947  0.59529112    -0.59500
In378      In  0.41765862  0.43510991  0.66138268     1.36900
C379        C  0.39171433  0.39302008  0.64640315     0.78200
O380        O  0.37921431  0.46046387  0.65857658    -0.60200
O381        O  0.41551042  0.47540850  0.64666749    -0.51100
C382        C  0.41965583  0.44978971  0.69317687     0.70900
O383        O  0.40158092  0.43308627  0.68756005    -0.46000
C384        C  0.46892171  0.41734356  0.65610922     0.75600
O385        O  0.39375413  0.39453354  0.66205478    -0.57900
O386        O  0.45883291  0.43802280  0.64834638    -0.48000
O387        O  0.40257124  0.41307590  0.63860371    -0.54300
C388        C  0.39011037  0.47903512  0.64955822     0.85800
O389        O  0.43670382  0.45865391  0.68258681    -0.56200
O390        O  0.45298733  0.40629962  0.66661847    -0.59500
In391      In  0.58243398  0.02470658  0.66196862     1.36900
C392        C  0.60392382  0.07569969  0.65855319     0.78200
O393        O  0.62231261  0.00898673  0.65163042    -0.60200
O394        O  0.58786927  0.98135017  0.65164897    -0.51100
C395        C  0.58290862  0.00524769  0.69318233     0.70900
O396        O  0.60286208  0.01844323  0.68689127    -0.46000
C397        C  0.53351654  0.03457178  0.64726609     0.75600
O398        O  0.59273435  0.06748422  0.67182426    -0.57900
O399        O  0.55257207  0.02118659  0.64036171    -0.48000
O400        O  0.60414888  0.05783224  0.64710598    -0.54300
C401        C  0.61306103  0.98503169  0.64821352     0.85800
O402        O  0.56237332  0.00207843  0.68355517    -0.56200
O403        O  0.53911462  0.04220746  0.66190142    -0.59500
In404      In  0.69908064  0.31306381  0.60068579     1.36900
C405        C  0.65378138  0.34272661  0.60666803     0.78200
O406        O  0.71077435  0.26739190  0.60145045    -0.60200
O407        O  0.67617261  0.28022994  0.61530011    -0.51100
C408        C  0.70819183  0.30939222  0.56819146     0.70900
O409        O  0.68466271  0.30519061  0.57441234    -0.46000
C410        C  0.74081856  0.34202585  0.61427928     0.75600
O411        O  0.66217861  0.33772831  0.59219261    -0.57900
O412        O  0.73652136  0.31668225  0.61774782    -0.48000
O413        O  0.66887210  0.33296820  0.61819745    -0.54300
C414        C  0.69118292  0.26032175  0.61079842     0.85800
O415        O  0.72699346  0.31513014  0.57860061    -0.56200
O416        O  0.72334001  0.35251514  0.60439174    -0.59500
C417        C  0.63848093  0.14102743  0.63913431     0.19300
C418        C  0.65333518  0.14575129  0.62442340    -0.18800
C419        C  0.66298448  0.17245747  0.62029464    -0.11000
C420        C  0.65795147  0.19515011  0.63085214     0.21600
C421        C  0.64330510  0.19044800  0.64560686    -0.20400
C422        C  0.63371477  0.16374218  0.64976714    -0.11200
C423        C  0.66569375  0.22426627  0.62636135    -0.15400
C424        C  0.68594664  0.23105092  0.61566641    -0.29200
C425        C  0.62730626  0.11247013  0.64232692    -0.03500
C426        C  0.61555463  0.10404947  0.65664799    -0.40000
H427        H  0.65710187  0.12875755  0.61591048     0.12700
H428        H  0.67349309  0.17531627  0.60857870     0.12400
H429        H  0.63890137  0.20763832  0.65386170     0.11800
H430        H  0.62200057  0.16141543  0.66107102     0.12000
H431        H  0.65417465  0.24093281  0.63222093     0.14800
H432        H  0.69878936  0.21505502  0.61022611     0.13500
H433        H  0.62875091  0.09753374  0.63224000     0.11200
H434        H  0.61421051  0.11782805  0.66723751     0.13200
C435        C  0.54000558  0.40168435  0.63669180     0.19300
C436        C  0.54958856  0.40215542  0.62027131    -0.18800
C437        C  0.57480876  0.38978917  0.61617375    -0.11000
C438        C  0.59122672  0.37671916  0.62852017     0.21600
C439        C  0.58193800  0.37700972  0.64503389    -0.26800
C440        C  0.55670705  0.38934583  0.64910996    -0.11200
C441        C  0.61795095  0.36247680  0.62491701    -0.15400
C442        C  0.62802280  0.35835940  0.60955714    -0.29200
C443        C  0.51265722  0.41437160  0.64038262    -0.03500
C444        C  0.49693180  0.40625546  0.65328284    -0.40000
H445        H  0.53729689  0.41181051  0.61049669     0.12700
H446        H  0.58106863  0.39070419  0.60333250     0.12400
H447        H  0.59421037  0.36749323  0.65486598     0.11800
H448        H  0.55055927  0.38937467  0.66201143     0.12000
H449        H  0.62960663  0.35425305  0.63547812     0.14800
H450        H  0.61701296  0.36564811  0.59859896     0.13500
H451        H  0.50440260  0.42959101  0.63160047     0.11200
H452        H  0.50392093  0.38976030  0.66157825     0.13200
C453        C  0.46123661  0.06545327  0.63725475     0.19300
C454        C  0.43963729  0.07566744  0.64702826    -0.18800
C455        C  0.41546082  0.08621268  0.63969285    -0.11000
C456        C  0.41222407  0.08688637  0.62224411     0.21600
C457        C  0.43369456  0.07627024  0.61246963    -0.20400
C458        C  0.45791829  0.06572416  0.61982666    -0.11200
C459        C  0.38779725  0.09988182  0.61370610    -0.15400
C460        C  0.36472603  0.10809471  0.62156110    -0.29200
C461        C  0.48733198  0.05648128  0.64575491    -0.03500
C462        C  0.50721639  0.04117084  0.63858668    -0.40000
H463        H  0.44165811  0.07594172  0.66046140     0.12700
H464        H  0.39995510  0.09449871  0.64786790     0.12400
H465        H  0.43198249  0.07666492  0.59902242     0.11800
H466        H  0.47419752  0.05871304  0.61174047     0.12000
H467        H  0.38903543  0.10320605  0.60034080     0.14800
H468        H  0.36217648  0.10435978  0.63475353     0.13500
H469        H  0.49032844  0.06290715  0.65859755     0.11200
H470        H  0.50465789  0.03355697  0.62599678     0.13200
C471        C  0.35646469  0.32242420  0.63662677     0.19300
C472        C  0.33844824  0.30421376  0.64503480    -0.18800
C473        C  0.32904001  0.27957165  0.63751673    -0.11000
C474        C  0.33762010  0.27254588  0.62136383     0.21600
C475        C  0.35549310  0.29087795  0.61295671    -0.20400
C476        C  0.36485657  0.31545709  0.62044964    -0.11200
C477        C  0.33035746  0.24553514  0.61326701    -0.15400
C478        C  0.30998475  0.22827656  0.61830709    -0.29200
C479        C  0.36757055  0.34737490  0.64546912    -0.03500
C480        C  0.37841516  0.36962399  0.63754505    -0.40000
H481        H  0.33195570  0.30886138  0.65757610     0.12700
H482        H  0.31586742  0.26580633  0.64466868     0.12400
H483        H  0.36275705  0.28586815  0.60062292     0.11800
H484        H  0.37944854  0.32829079  0.61368843     0.12000
H485        H  0.34274443  0.23936886  0.60268683     0.14800
H486        H  0.29644352  0.23403579  0.62839028     0.13500
H487        H  0.36695930  0.34733064  0.65898389     0.11200
H488        H  0.37811456  0.37081931  0.62407344     0.13200
C489        C  0.29287215  0.56888862  0.62537870     0.19300
C490        C  0.32158168  0.57357801  0.62600221    -0.18800
C491        C  0.33950681  0.55313072  0.63232877    -0.11000
C492        C  0.32895164  0.52756137  0.63831283     0.21600
C493        C  0.30017478  0.52322417  0.63805732    -0.20400
C494        C  0.28231914  0.54355660  0.63165485    -0.11200
C495        C  0.34684050  0.50511197  0.64533894    -0.15400
C496        C  0.37427550  0.50288237  0.64274860    -0.29200
C497        C  0.27442884  0.59122397  0.61881328    -0.03500
C498        C  0.24931157  0.58604569  0.61210666    -0.40000
H499        H  0.33019227  0.59313376  0.62151800     0.12700
H500        H  0.36142915  0.55770573  0.63273889     0.12400
H501        H  0.29141458  0.50393164  0.64282941     0.11800
H502        H  0.26027077  0.53954024  0.63197506     0.12000
H503        H  0.33656105  0.48885785  0.65253545     0.14800
H504        H  0.38522370  0.51797169  0.63511396     0.13500
H505        H  0.28208965  0.61260389  0.61913373     0.11200
H506        H  0.24193750  0.56473991  0.61070079     0.13200
C507        C  0.19991947  0.07439371  0.62776399     0.19300
C508        C  0.19584896  0.06976945  0.64479907    -0.18800
C509        C  0.17767976  0.04894129  0.65025277    -0.11000
C510        C  0.16291801  0.03252007  0.63870774     0.21600
C511        C  0.16617991  0.03789816  0.62164920    -0.20400
C512        C  0.18469591  0.05849138  0.61618805    -0.11200
C513        C  0.14371035  0.00999950  0.64409131    -0.15400
C514        C  0.14745735  0.99543481  0.65827331    -0.29200
C515        C  0.22005123  0.09607094  0.62253414    -0.03500
C516        C  0.23614464  0.09321188  0.60912401    -0.40000
H517        H  0.20710363  0.08204498  0.65392518     0.12700
H518        H  0.17498836  0.04603348  0.66349592     0.12400
H519        H  0.15469922  0.02582497  0.61252786     0.11800
H520        H  0.18688282  0.06212326  0.60296028     0.12000
H521        H  0.12687782  0.00420134  0.63570889     0.14800
H522        H  0.16526493  0.99957480  0.66623052     0.13500
H523        H  0.22350344  0.11368263  0.63078563     0.11200
H524        H  0.23449483  0.07464716  0.60147782     0.13200
C525        C  0.15210465  0.81712164  0.64352394     0.19300
C526        C  0.15992584  0.79282909  0.65221091    -0.18800
C527        C  0.16939662  0.76929999  0.64375321    -0.11000
C528        C  0.17136441  0.76951862  0.62628839     0.21600
C529        C  0.16406198  0.79392833  0.61761502    -0.20400
C530        C  0.15458973  0.81742905  0.62605094    -0.11200
C531        C  0.17861979  0.74430183  0.61650534    -0.15400
C532        C  0.19040102  0.72118280  0.62294353    -0.29200
C533        C  0.14053004  0.84093815  0.65316976    -0.03500
C534        C  0.13340037  0.86572913  0.64646192    -0.40000
H535        H  0.15816733  0.79181701  0.66562268     0.12700
H536        H  0.17416668  0.75081584  0.65097665     0.12400
H537        H  0.16517805  0.79466508  0.60416698     0.11800
H538        H  0.14874940  0.83532874  0.61862416     0.12000
H539        H  0.17329890  0.74456364  0.60333589     0.14800
H540        H  0.19694381  0.72032067  0.63586333     0.13500
H541        H  0.13740539  0.83778626  0.66642415     0.11200
H542        H  0.13652078  0.87006877  0.63339069     0.13200
C543        C  0.79170295  0.40265819  0.62295657     0.19300
C544        C  0.78807457  0.43168670  0.62317734    -0.18800
C545        C  0.80930620  0.44931944  0.62867109    -0.11000
C546        C  0.83488384  0.43830647  0.63389953     0.21600
C547        C  0.83897251  0.40935426  0.63312424    -0.20400
C548        C  0.81750405  0.39159153  0.62783840    -0.11200
C549        C  0.85765279  0.45690080  0.63968882    -0.15400
C550        C  0.85259217  0.48003166  0.64852047    -0.29200
C551        C  0.76837598  0.38503295  0.61688071    -0.03500
C552        C  0.76466096  0.35798046  0.62095030    -0.40000
H553        H  0.76860992  0.44078500  0.61917909     0.12700
H554        H  0.80580742  0.47162375  0.62856659     0.12400
H555        H  0.85869765  0.40046643  0.63679818     0.11800
H556        H  0.82134869  0.36939005  0.62731267     0.12000
H557        H  0.87887474  0.45120971  0.63693246     0.14800
H558        H  0.83155336  0.48471130  0.65223766     0.13500
H559        H  0.75287730  0.39523746  0.60910016     0.11200
H560        H  0.77906053  0.34737600  0.62923588     0.13200
C561        C  0.07996899  0.59832026  0.61970203     0.19300
C562        C  0.07480309  0.57229107  0.62719133    -0.18800
C563        C  0.04853270  0.56560104  0.63325197    -0.11000
C564        C  0.02686546  0.58502220  0.63212464     0.21600
C565        C  0.03202778  0.61115187  0.62473909    -0.20400
C566        C  0.05824227  0.61771254  0.61845760    -0.11200
C567        C  0.99925808  0.57923224  0.63942577    -0.15400
C568        C  0.98817407  0.55343830  0.64044364    -0.29200
C569        C  0.10877124  0.60531351  0.61475595    -0.03500
C570        C  0.11537798  0.62456600  0.60317273    -0.40000
H571        H  0.09129482  0.55717946  0.62855888     0.12700
H572        H  0.04552840  0.54559315  0.63930656     0.12400
H573        H  0.01576391  0.62661376  0.62394351     0.11800
H574        H  0.06163901  0.63829089  0.61322549     0.12000
H575        H  0.98727132  0.59695242  0.64363980     0.14800
H576        H  0.99886987  0.53572215  0.63518521     0.13500
H577        H  0.12536312  0.59400680  0.62100943     0.11200
H578        H  0.09932945  0.63507800  0.59602025     0.13200
C579        C  0.71641226  0.90718622  0.61995010     0.19300
C580        C  0.68972745  0.89837248  0.62447533    -0.18800
C581        C  0.67009301  0.91749234  0.63004029    -0.11000
C582        C  0.67679070  0.94606349  0.63124241     0.21600
C583        C  0.70350457  0.95483359  0.62674790    -0.20400
C584        C  0.72311823  0.93572984  0.62120948    -0.11200
C585        C  0.65733781  0.96736759  0.63774418    -0.15400
C586        C  0.63034763  0.96290656  0.64099982    -0.29200
C587        C  0.73673846  0.88578377  0.61463528    -0.03500
C588        C  0.76067605  0.89163454  0.60685646    -0.40000
H589        H  0.68404951  0.87647016  0.62379560     0.12700
H590        H  0.65005153  0.90954937  0.63362078     0.12400
H591        H  0.70939830  0.97664051  0.62770862     0.11800
H592        H  0.74356637  0.94349808  0.61833181     0.12000
H593        H  0.66588687  0.98804352  0.64008464     0.14800
H594        H  0.62057324  0.94291643  0.63858862     0.13500
H595        H  0.73150433  0.86403788  0.61704547     0.11200
H596        H  0.76631033  0.91291260  0.60368068     0.13200
C597        C  0.97739774  0.88810958  0.64586598     0.19300
C598        C  0.97297879  0.86288937  0.63743232    -0.18800
C599        C  0.94735701  0.85692381  0.63003314    -0.11000
C600        C  0.92543314  0.87601639  0.63107756     0.21600
C601        C  0.92956363  0.90090164  0.63991851    -0.20400
C602        C  0.95534242  0.90704305  0.64715464    -0.11200
C603        C  0.89768241  0.86978735  0.62388673    -0.15400
C604        C  0.89389301  0.85385935  0.61031214    -0.29200
C605        C  0.00504093  0.89342829  0.65347915    -0.03500
C606        C  0.01551438  0.91911101  0.65612895    -0.40000
H607        H  0.98949428  0.84776809  0.63648997     0.12700
H608        H  0.94462208  0.83709368  0.62383731     0.12400
H609        H  0.91280866  0.91567625  0.64117294     0.11800
H610        H  0.95771965  0.92629866  0.65399757     0.12000
H611        H  0.87979883  0.87897556  0.62983742     0.14800
H612        H  0.91154989  0.84589816  0.60358959     0.13500
H613        H  0.01803201  0.87540598  0.65603965     0.11200
H614        H  0.00377895  0.93755020  0.65268737     0.13200
C615        C  0.85856632  0.65659302  0.63597102     0.19300
C616        C  0.85007039  0.67971529  0.64525169    -0.18800
C617        C  0.83990946  0.70372114  0.63733288    -0.11000
C618        C  0.83806596  0.70513683  0.61984907     0.21600
C619        C  0.84633268  0.68194051  0.61059302    -0.20400
C620        C  0.85652410  0.65800845  0.61848817    -0.11200
C621        C  0.83043326  0.73111013  0.61068967    -0.15400
C622        C  0.81796852  0.75320753  0.61758853    -0.29200
C623        C  0.87062932  0.63209812  0.64491764    -0.03500
C624        C  0.87386391  0.60692590  0.63790005    -0.40000
H625        H  0.85170007  0.67937944  0.65869883     0.12700
H626        H  0.83454713  0.72132919  0.64498801     0.12400
H627        H  0.84556470  0.68258450  0.59712347     0.11800
H628        H  0.86357117  0.64121129  0.61070586     0.12000
H629        H  0.83646196  0.73251682  0.59770839     0.14800
H630        H  0.81074782  0.75239055  0.63031336     0.13500
H631        H  0.87698242  0.63486291  0.65781460     0.11200
H632        H  0.86688081  0.60310903  0.62527117     0.13200
C633        C  0.64641204  0.24454372  0.13309728     0.19300
C634        C  0.62993521  0.24891887  0.14712425    -0.18800
C635        C  0.62589111  0.27589555  0.15324558    -0.11000
C636        C  0.63873392  0.29904733  0.14557036     0.21600
C637        C  0.65600067  0.29442467  0.13191329    -0.20400
C638        C  0.65990754  0.26752135  0.12576487    -0.11200
C639        C  0.63322957  0.32839887  0.15051281    -0.15400
C640        C  0.62187210  0.33591697  0.16503125    -0.29200
C641        C  0.64908943  0.21590102  0.12633450    -0.03500
C642        C  0.65249195  0.21097308  0.11001653    -0.40000
H643        H  0.61943883  0.23149448  0.15304394     0.12700
H644        H  0.61201162  0.27844289  0.16358648     0.12400
H645        H  0.66626828  0.31180491  0.12580827     0.11800
H646        H  0.67348152  0.26479915  0.11526802     0.12000
H647        H  0.63842645  0.34466856  0.14156068     0.14800
H648        H  0.61732847  0.32050671  0.17456377     0.13500
H649        H  0.64656962  0.19838081  0.13484767     0.11200
H650        H  0.65305022  0.22818578  0.10119049     0.13200
C651        C  0.49502864  0.06531622  0.13787022     0.19300
C652        C  0.50072160  0.09276171  0.13268732    -0.18800
C653        C  0.52621310  0.09961775  0.12558546    -0.11000
C654        C  0.54673767  0.07916433  0.12377000     0.21600
C655        C  0.54143570  0.05194745  0.12948664    -0.20400
C656        C  0.51577180  0.04498063  0.13635998    -0.11200
C657        C  0.57434719  0.08602858  0.11685908    -0.15400
C658        C  0.57819924  0.10567821  0.10507415    -0.29200
C659        C  0.46733223  0.05874126  0.14482544    -0.03500
C660        C  0.45512602  0.03356690  0.14328460    -0.40000
H661        H  0.48523952  0.10888766  0.13394157     0.12700
H662        H  0.52999077  0.12103040  0.12183729     0.12400
H663        H  0.55714760  0.03598724  0.12852308     0.11800
H664        H  0.51241034  0.02381592  0.14069338     0.12000
H665        H  0.59201620  0.07423878  0.12147972     0.14800
H666        H  0.56059886  0.11653642  0.09964344     0.13500
H667        H  0.45567455  0.07579220  0.15018425     0.11200
H668        H  0.46561689  0.01677033  0.13693583     0.13200
C669        C  0.32724375  0.19730268  0.12174622     0.19300
C670        C  0.33710656  0.17532064  0.11204150    -0.18800
C671        C  0.34134639  0.14886720  0.11901026    -0.11000
C672        C  0.33591237  0.14383401  0.13595798     0.21600
C673        C  0.32643949  0.16596327  0.14572470    -0.20400
C674        C  0.32205187  0.19240140  0.13872309    -0.11200
C675        C  0.34172578  0.11645145  0.14408159    -0.15400
C676        C  0.34345183  0.09232982  0.13567361    -0.29200
C677        C  0.32435530  0.22538925  0.11401274    -0.03500
C678        C  0.30722142  0.24505377  0.11977351    -0.40000
H679        H  0.34177632  0.17869189  0.09902244     0.12700
H680        H  0.34969603  0.13278317  0.11115306     0.12400
H681        H  0.32264706  0.16284294  0.15887027     0.11800
H682        H  0.31540385  0.20905792  0.14676483     0.12000
H683        H  0.34514028  0.11623838  0.15746645     0.14800
H684        H  0.33918098  0.09172692  0.12241698     0.13500
H685        H  0.33670441  0.22996304  0.10307748     0.11200
H686        H  0.29371366  0.24059421  0.13017994     0.13200
C687        C  0.42908711  0.36188948  0.12817099     0.19300
C688        C  0.45098020  0.37516066  0.11982704    -0.18800
C689        C  0.47487383  0.38371260  0.12847321    -0.11000
C690        C  0.47749982  0.37898757  0.14573580     0.21600
C691        C  0.45594842  0.36500983  0.15397192    -0.20400
C692        C  0.43204233  0.35658856  0.14535511    -0.11200
C693        C  0.50290002  0.38672773  0.15540215    -0.15400
C694        C  0.52131645  0.40623490  0.15048153    -0.29200
C695        C  0.40385215  0.35326240  0.11856061    -0.03500
C696        C  0.37889194  0.34983661  0.12564489    -0.40000
H697        H  0.44954150  0.37905079  0.10656211     0.12700
H698        H  0.49137402  0.39344033  0.12148770     0.12400
H699        H  0.45762585  0.36051961  0.16716334     0.11800
H700        H  0.41623033  0.34545732  0.15218776     0.12000
H701        H  0.50662766  0.37575894  0.16707832     0.14800
H702        H  0.51779479  0.41814296  0.13915562     0.13500
H703        H  0.40563828  0.35067827  0.10519120     0.11200
H704        H  0.37640967  0.35385355  0.13880859     0.13200
C705        C  0.27648835  0.93265196  0.13786091     0.19300
C706        C  0.24806463  0.93820343  0.13652761    -0.18800
C707        C  0.22940492  0.91728071  0.13175013    -0.11000
C708        C  0.23882472  0.89017039  0.12835976     0.21600
C709        C  0.26718693  0.88444030  0.13006339    -0.20400
C710        C  0.28590496  0.90547145  0.13467506    -0.11200
C711        C  0.21966689  0.86735093  0.12326165    -0.15400
C712        C  0.19586123  0.87201896  0.11495397    -0.29200
C713        C  0.29541092  0.95534956  0.14339971    -0.03500
C714        C  0.32224485  0.95696249  0.13914382    -0.40000
H715        H  0.24026462  0.95886115  0.13917391     0.12700
H716        H  0.20761276  0.92231050  0.13106661     0.12400
H717        H  0.27490964  0.86364648  0.12771582     0.11800
H718        H  0.30757176  0.90023410  0.13607817     0.12000
H719        H  0.22633356  0.84594592  0.12531207     0.14800
H720        H  0.18984598  0.89312702  0.11159592     0.13500
H721        H  0.28659767  0.97195339  0.15081265     0.11200
H722        H  0.33117771  0.94150914  0.13098205     0.13200
C723        C  0.74179086  0.03715800  0.11594220     0.19300
C724        C  0.73538666  0.01034028  0.12190922    -0.18800
C725        C  0.75625608  0.99272359  0.12786518    -0.11000
C726        C  0.78409235  0.00153547  0.12782932     0.21600
C727        C  0.79060609  0.02802750  0.12140849    -0.20400
C728        C  0.76969105  0.04577392  0.11560259    -0.11200
C729        C  0.80679585  0.98314039  0.13377349    -0.15400
C730        C  0.80324502  0.96391362  0.14581697    -0.29200
C731        C  0.71899726  0.05502670  0.10954173    -0.03500
C732        C  0.72029558  0.08306797  0.10920757    -0.40000
H733        H  0.71412571  0.00301921  0.12200856     0.12700
H734        H  0.75056677  0.97204322  0.13215853     0.12400
H735        H  0.81194280  0.03505890  0.12095996     0.11800
H736        H  0.77553792  0.06590977  0.11054678     0.12000
H737        H  0.82719037  0.98602247  0.12839460     0.14800
H738        H  0.78343537  0.96186641  0.15198902     0.13500
H739        H  0.70005413  0.04469899  0.10544412     0.11200
H740        H  0.73832292  0.09398066  0.11409202     0.13200
C741        C  0.03485096  0.85783050  0.12069496     0.19300
C742        C  0.03090634  0.88019494  0.13162410    -0.18800
C743        C  0.00433950  0.88706614  0.13700317    -0.11000
C744        C  0.98133194  0.87123733  0.13176687     0.21600
C745        C  0.98526403  0.84893605  0.12082968    -0.20400
C746        C  0.01171592  0.84242045  0.11519338    -0.11200
C747        C  0.95336167  0.87595291  0.13850142    -0.15400
C748        C  0.94344856  0.90133592  0.14214065    -0.29200
C749        C  0.06342133  0.84940473  0.11652008    -0.03500
C750        C  0.07006518  0.83664763  0.10225438    -0.40000
H751        H  0.04849500  0.89209921  0.13620590     0.12700
H752        H  0.00196868  0.90396945  0.14574890     0.12400
H753        H  0.96781708  0.83626765  0.11681309     0.11800
H754        H  0.01410635  0.82458707  0.10714200     0.12000
H755        H  0.93994759  0.85779287  0.13986612     0.14800
H756        H  0.95561481  0.92000100  0.13965702     0.13500
H757        H  0.07967690  0.85403256  0.12554788     0.11200
H758        H  0.05467982  0.83370542  0.09248903     0.13200
C759        C  0.16051985  0.43475263  0.13591734     0.19300
C760        C  0.18851894  0.44255312  0.13543919    -0.18800
C761        C  0.20868142  0.42358579  0.13057094    -0.11000
C762        C  0.20126924  0.39620343  0.12601832     0.21600
C763        C  0.17332697  0.38813116  0.12689952    -0.20400
C764        C  0.15308437  0.40719193  0.13175061    -0.11200
C765        C  0.22222594  0.37539996  0.12086245    -0.15400
C766        C  0.24707653  0.38266016  0.11471884    -0.29200
C767        C  0.14014979  0.45569577  0.14158531    -0.03500
C768        C  0.11281557  0.45447265  0.13830280    -0.40000
H769        H  0.19487300  0.46347989  0.13889735     0.12700
H770        H  0.23004252  0.43041503  0.13076208     0.12400
H771        H  0.16712585  0.36701338  0.12377587     0.11800
H772        H  0.13185427  0.40007538  0.13251093     0.12000
H773        H  0.21679541  0.35340014  0.12181786     0.14800
H774        H  0.25250908  0.40442487  0.11283862     0.13500
H775        H  0.14825193  0.47346504  0.14847955     0.11200
H776        H  0.10406651  0.43773321  0.13086708     0.13200
C777        C  0.11868808  0.62885070  0.13355994     0.19300
C778        C  0.12475244  0.63612102  0.11704264    -0.18800
C779        C  0.13311191  0.66323802  0.11289039    -0.11000
C780        C  0.13561877  0.68385938  0.12522468     0.21600
C781        C  0.13098561  0.67625961  0.14186423    -0.20400
C782        C  0.12255296  0.64909379  0.14602928    -0.11200
C783        C  0.14279093  0.71339631  0.12115061    -0.15400
C784        C  0.13694712  0.72508584  0.10628007    -0.29200
C785        C  0.10817075  0.60011009  0.13702115    -0.03500
C786        C  0.09491675  0.59248404  0.15101341    -0.40000
H787        H  0.12252700  0.62085885  0.10721783     0.12700
H788        H  0.13761928  0.66786748  0.10000793     0.12400
H789        H  0.13330915  0.69157436  0.15165076     0.11800
H790        H  0.11912044  0.64422345  0.15899109     0.12000
H791        H  0.15143331  0.72636963  0.13097473     0.14800
H792        H  0.12675465  0.71293405  0.09664614     0.13500
H793        H  0.11005025  0.58485312  0.12713702     0.11200
H794        H  0.09191988  0.60717907  0.16102500     0.13200
C795        C  0.66401601  0.51288953  0.13436451     0.19300
C796        C  0.66152651  0.52008075  0.11749473    -0.18800
C797        C  0.67975188  0.53935293  0.11033950    -0.11000
C798        C  0.70062360  0.55206995  0.12004395     0.21600
C799        C  0.70227583  0.54579650  0.13708770    -0.20400
C800        C  0.68429878  0.52621461  0.14418612    -0.11200
C801        C  0.72077699  0.57210249  0.11283344    -0.15400
C802        C  0.72891157  0.57092987  0.09691729    -0.29200
C803        C  0.64466758  0.49207533  0.14150968    -0.03500
C804        C  0.65231874  0.47393901  0.15348006    -0.40000
H805        H  0.64567607  0.51045492  0.10978580     0.12700
H806        H  0.67721174  0.54445868  0.09729019     0.12400
H807        H  0.71784514  0.55571751  0.14487152     0.11800
H808        H  0.68608606  0.52174834  0.15736547     0.12000
H809        H  0.73036258  0.58729233  0.12110621     0.14800
H810        H  0.72083202  0.55488074  0.08869645     0.13500
H811        H  0.62390984  0.49076480  0.13621399     0.11200
H812        H  0.67355030  0.47367653  0.15805212     0.13200
C813        C  0.94787413  0.54008007  0.11466234     0.19300
C814        C  0.94543793  0.55595175  0.10000619    -0.18800
C815        C  0.91948737  0.56516820  0.09440284    -0.11000
C816        C  0.89531140  0.55819953  0.10324018     0.21600
C817        C  0.89775699  0.54136159  0.11752815    -0.20400
C818        C  0.92367580  0.53229087  0.12315216    -0.11200
C819        C  0.86754127  0.56960586  0.09883292    -0.15400
C820        C  0.86110396  0.58176176  0.08416475    -0.29200
C821        C  0.97584502  0.53240862  0.12100636    -0.03500
C822        C  0.98152412  0.53018187  0.13737518    -0.40000
H823        H  0.96376492  0.56209547  0.09320635     0.12700
H824        H  0.91876045  0.57848422  0.08351718     0.12400
H825        H  0.87955000  0.53553855  0.12453651     0.11800
H826        H  0.92469816  0.51930410  0.13419739     0.12000
H827        H  0.85173948  0.56852424  0.10837145     0.14800
H828        H  0.87589781  0.58252091  0.07411556     0.13500
H829        H  0.99252976  0.53042921  0.11211089     0.11200
H830        H  0.96545799  0.53409986  0.14641445     0.13200
C831        C  0.82329222  0.78759345  0.13493053     0.19300
C832        C  0.83943880  0.76334191  0.13471417    -0.18800
C833        C  0.83056946  0.73983992  0.12584213    -0.11000
C834        C  0.80503243  0.73997200  0.11727822     0.21600
C835        C  0.78847052  0.76390519  0.11794110    -0.20400
C836        C  0.79760228  0.78761881  0.12653267    -0.11200
C837        C  0.79481927  0.71503240  0.10815180    -0.15400
C838        C  0.81190293  0.69819722  0.09978905    -0.29200
C839        C  0.83361292  0.81244097  0.14410785    -0.03500
C840        C  0.82925752  0.83858036  0.13856455    -0.40000
H841        H  0.85914811  0.76272565  0.14124205     0.12700
H842        H  0.84345926  0.72141432  0.12595480     0.12400
H843        H  0.76854990  0.76433815  0.11164695     0.11800
H844        H  0.78436838  0.80577904  0.12681360     0.12000
H845        H  0.77265695  0.71097891  0.10783782     0.14800
H846        H  0.83380720  0.70326046  0.09905631     0.13500
H847        H  0.84690450  0.80911992  0.15491334     0.11200
H848        H  0.81798260  0.84197653  0.12698740     0.13200
C849        C  0.74459200  0.31283211  0.52570443     0.19300
C850        C  0.76983519  0.32450613  0.52053640    -0.18800
C851        C  0.77645944  0.32611058  0.50366206    -0.11000
C852        C  0.75785706  0.31598421  0.49151950     0.21600
C853        C  0.73296328  0.30360320  0.49671989    -0.20400
C854        C  0.72633590  0.30200217  0.51359118    -0.11200
C855        C  0.76374545  0.31718759  0.47339474    -0.15400
C856        C  0.78279203  0.33410532  0.46643065    -0.29200
C857        C  0.73845257  0.31220251  0.54379766    -0.03500
C858        C  0.71305760  0.30806373  0.55015335    -0.40000
H859        H  0.78449153  0.33261183  0.52961172     0.12700
H860        H  0.79627236  0.33495134  0.50030700     0.12400
H861        H  0.71845638  0.29520296  0.48765702     0.11800
H862        H  0.70708514  0.29199414  0.51697426     0.12000
H863        H  0.75110573  0.30408851  0.46531103     0.14800
H864        H  0.79511274  0.34829195  0.47394024     0.13500
H865        H  0.75555672  0.31652945  0.55230015     0.11200
H866        H  0.69522285  0.30454729  0.54216050     0.13200
C867        C  0.88578222  0.96393232  0.23236502     0.19300
C868        C  0.89083310  0.99249528  0.23494412    -0.18800
C869        C  0.89243035  0.00344888  0.25100598    -0.11000
C870        C  0.88890406  0.98604471  0.26499123     0.21600
C871        C  0.88490210  0.95730359  0.26247993    -0.20400
C872        C  0.88324684  0.94631478  0.24637129    -0.11200
C873        C  0.88956144  0.99709350  0.28229253    -0.15400
C874        C  0.88337070  0.02372521  0.28601390    -0.29200
C875        C  0.88361662  0.95379794  0.21487916    -0.03500
C876        C  0.87422361  0.92839731  0.21029033    -0.40000
H877        H  0.89337785  0.00653799  0.22444029     0.12700
H878        H  0.89667940  0.02550923  0.25235283     0.12400
H879        H  0.88262577  0.94333488  0.27303396     0.11800
H880        H  0.88011019  0.92407275  0.24506537     0.12000
H881        H  0.89404348  0.98253850  0.29235496     0.14800
H882        H  0.87739149  0.03828307  0.27628433     0.13500
H883        H  0.88911963  0.96861466  0.20513653     0.11200
H884        H  0.86752023  0.91318794  0.21945809     0.13200
C885        C  0.83599260  0.16556607  0.36856779     0.19300
C886        C  0.83614405  0.17082315  0.38572477    -0.18800
C887        C  0.82639066  0.19607335  0.39193956    -0.11000
C888        C  0.81624433  0.21685043  0.38106902     0.21600
C889        C  0.81527603  0.21127266  0.36394103    -0.20400
C890        C  0.82503277  0.18595354  0.35771264    -0.11200
C891        C  0.80640645  0.24441135  0.38707078    -0.15400
C892        C  0.81377074  0.25523377  0.40188321    -0.29200
C893        C  0.84682168  0.13830562  0.36275997    -0.03500
C894        C  0.85362783  0.13260156  0.34693018    -0.40000
H895        H  0.84398183  0.15530372  0.39441420     0.12700
H896        H  0.82659589  0.19892905  0.40526341     0.12400
H897        H  0.80715367  0.22671101  0.35529707     0.11800
H898        H  0.82364237  0.18248911  0.34446339     0.12000
H899        H  0.79398846  0.25700658  0.37857278     0.14800
H900        H  0.82754318  0.24399773  0.41023272     0.13500
H901        H  0.84993126  0.12218590  0.37216512     0.11200
H902        H  0.85144009  0.14813935  0.33716304     0.13200
C903        C  0.06493966  0.47552465  0.23383804     0.19300
C904        C  0.06738168  0.49242863  0.24797316    -0.18800
C905        C  0.06990803  0.48060212  0.26385582    -0.11000
C906        C  0.07020792  0.45140620  0.26598944     0.21600
C907        C  0.06801496  0.43445904  0.25183204    -0.20400
C908        C  0.06527080  0.44631495  0.23592389    -0.11200
C909        C  0.07440021  0.43811912  0.28263602    -0.15400
C910        C  0.06787826  0.45071036  0.29700162    -0.29200
C911        C  0.06417320  0.48916116  0.21715245    -0.03500
C912        C  0.05366381  0.47710010  0.20338489    -0.40000
H913        H  0.06766194  0.51497532  0.24670529     0.12700
H914        H  0.07251315  0.49446302  0.27432477     0.12400
H915        H  0.06864240  0.41191671  0.25307711     0.11800
H916        H  0.06432169  0.43255944  0.22531744     0.12000
H917        H  0.08287504  0.41712867  0.28306285     0.14800
H918        H  0.05795032  0.47098626  0.29683927     0.13500
H919        H  0.07249018  0.51025071  0.21621237     0.11200
H920        H  0.04392638  0.45666249  0.20406707     0.13200
C921        C  0.91319381  0.38005871  0.38953129     0.19300
C922        C  0.93696367  0.38691677  0.39887453    -0.18800
C923        C  0.96205103  0.39303368  0.39102290    -0.11000
C924        C  0.96387321  0.39235461  0.37356274     0.21600
C925        C  0.94015836  0.38541048  0.36424845    -0.20400
C926        C  0.91513314  0.37932051  0.37207376    -0.11200
C927        C  0.99015990  0.39719254  0.36448498    -0.15400
C928        C  0.01272186  0.40979214  0.37094365    -0.29200
C929        C  0.88744612  0.37215434  0.39850680    -0.03500
C930        C  0.86232877  0.37002798  0.39122486    -0.40000
H931        H  0.93620825  0.38722363  0.41233249     0.12700
H932        H  0.97997000  0.39752092  0.39872704     0.12400
H933        H  0.94105837  0.38436625  0.35080989     0.11800
H934        H  0.89775068  0.37331038  0.36431409     0.12000
H935        H  0.99079914  0.39028297  0.35163444     0.14800
H936        H  0.01276133  0.41790618  0.38350700     0.13500
H937        H  0.88937695  0.36736261  0.41170231     0.11200
H938        H  0.85930359  0.37523936  0.37820546     0.13200
C939        C  0.24464203  0.16154567  0.52570060     0.19300
C940        C  0.21609355  0.16400530  0.52252299    -0.18800
C941        C  0.20522656  0.15986453  0.50651833    -0.11000
C942        C  0.22277750  0.15313217  0.49325552     0.21600
C943        C  0.25139681  0.15169394  0.49630346    -0.20400
C944        C  0.26226182  0.15585115  0.51228614    -0.11200
C945        C  0.21241834  0.14821835  0.47600776    -0.15400
C946        C  0.18593067  0.14208384  0.47205994    -0.29200
C947        C  0.25486396  0.16451484  0.54317569    -0.03500
C948        C  0.28005500  0.15623428  0.54854167    -0.40000
H949        H  0.20203713  0.16879288  0.53252728     0.12700
H950        H  0.18316632  0.16220141  0.50465753     0.12400
H951        H  0.26545964  0.14708446  0.48627499     0.11800
H952        H  0.28444704  0.15463780  0.51392169     0.12000
H953        H  0.22756953  0.14899089  0.46608950     0.14800
H954        H  0.17034654  0.14007799  0.48161908     0.13500
H955        H  0.24022596  0.17203125  0.55230159     0.11200
H956        H  0.29490803  0.14750623  0.54002783     0.13200
C957        C  0.99969002  0.06602400  0.37239923     0.19300
C958        C  0.00310443  0.06985302  0.38959590    -0.18800
C959        C  0.02873448  0.07788853  0.39630992    -0.11000
C960        C  0.05175280  0.08201197  0.38591976     0.21600
C961        C  0.04855843  0.07712898  0.36879642    -0.20400
C962        C  0.02292432  0.06912147  0.36209004    -0.11200
C963        C  0.07887368  0.09296466  0.39210225    -0.15400
C964        C  0.08613575  0.09498573  0.40826654    -0.29200
C965        C  0.97155717  0.05922095  0.36579599    -0.03500
C966        C  0.96367222  0.06351087  0.34988375    -0.40000
H967        H  0.98562777  0.06740972  0.39785005     0.12700
H968        H  0.02994420  0.08164953  0.40952865     0.12400
H969        H  0.06593429  0.07988737  0.36049756     0.11800
H970        H  0.02153715  0.06544736  0.34885413     0.12000
H971        H  0.09356030  0.10007740  0.38279731     0.14800
H972        H  0.07271034  0.08718941  0.41798319     0.13500
H973        H  0.95616135  0.05201570  0.37464872     0.11200
H974        H  0.97804178  0.07204607  0.34088036     0.13200
C975        C  0.15022461  0.24986285  0.38542870     0.19300
C976        C  0.14667669  0.25481097  0.36830409    -0.18800
C977        C  0.13850955  0.28114243  0.36240982    -0.11000
C978        C  0.13391275  0.30311958  0.37360598     0.21600
C979        C  0.13854346  0.29837174  0.39063911    -0.20400
C980        C  0.14667889  0.27217458  0.39649837    -0.11200
C981        C  0.12482745  0.33145813  0.36831140    -0.15400
C982        C  0.11364249  0.33783370  0.35337617    -0.29200
C983        C  0.15723596  0.22126583  0.39140818    -0.03500
C984        C  0.15028678  0.21201454  0.40665321    -0.40000
H985        H  0.14973074  0.23811744  0.35948891     0.12700
H986        H  0.13601088  0.28409239  0.34914051     0.12400
H987        H  0.13566917  0.31500560  0.39952042     0.11800
H988        H  0.15032006  0.26964054  0.40971606     0.12000
H989        H  0.12642811  0.34786488  0.37756885     0.14800
H990        H  0.11070150  0.32204339  0.34391200     0.13500
H991        H  0.16653023  0.20686792  0.38269871     0.11200
H992        H  0.13925879  0.22546867  0.41510915     0.13200
C993        C  0.36722184  0.97082733  0.26808051     0.19300
C994        C  0.36682065  0.95275175  0.25440966    -0.18800
C995        C  0.36552529  0.96334282  0.23817593    -0.11000
C996        C  0.36427738  0.99231872  0.23530021     0.21600
C997        C  0.36342933  0.01034272  0.24895552    -0.20400
C998        C  0.36504473  0.99977682  0.26519643    -0.11200
C999        C  0.36343140  0.00414252  0.21819925    -0.15400
C1000       C  0.37728518  0.99246784  0.20563261    -0.29200
C1001       C  0.36945127  0.95878868  0.28513155    -0.03500
C1002       C  0.38059316  0.97283144  0.29800752    -0.40000
H1003       H  0.36793077  0.93036539  0.25629089     0.12700
H1004       H  0.36524798  0.94882331  0.22790862     0.12400
H1005       H  0.36195071  0.03270116  0.24704024     0.11800
H1006       H  0.36423242  0.01431682  0.27541854     0.12000
H1007       H  0.35220429  0.02348148  0.21606676     0.14800
H1008       H  0.38993278  0.97411941  0.20792561     0.13500
H1009       H  0.36290853  0.93724509  0.28697172     0.11200
H1010       H  0.38869023  0.99380083  0.29622948     0.13200
C1011       C  0.29561480  0.01870850  0.37851241     0.19300
C1012       C  0.26728140  0.01245797  0.37962996    -0.18800
C1013       C  0.24899204  0.03134748  0.38672663    -0.11000
C1014       C  0.25870576  0.05704236  0.39290597     0.21600
C1015       C  0.28700988  0.06338443  0.39175599    -0.20400
C1016       C  0.30535754  0.04443446  0.38467993    -0.11200
C1017       C  0.23967768  0.07825002  0.39972155    -0.15400
C1018       C  0.21517275  0.07167923  0.40651733    -0.29200
C1019       C  0.31374655  0.99845112  0.36999697    -0.03500
C1020       C  0.34155313  0.99851967  0.37100580    -0.40000
H1021       H  0.25915802  0.99296846  0.37477825     0.12700
H1022       H  0.22720211  0.02604577  0.38685604     0.12400
H1023       H  0.29492514  0.08321569  0.39622704     0.11800
H1024       H  0.32686262  0.05046852  0.38368203     0.12000
H1025       H  0.24629920  0.09998438  0.39940597     0.14800
H1026       H  0.20885923  0.05002464  0.40794302     0.13500
H1027       H  0.30355434  0.98233926  0.36264926     0.11200
H1028       H  0.35259530  0.01339838  0.37874454     0.13200
C1029       C  0.23206441  0.64702503  0.51838254     0.19300
C1030       C  0.21527112  0.64847943  0.50409254    -0.18800
C1031       C  0.22700316  0.64831277  0.48825044    -0.11000
C1032       C  0.25586920  0.64625425  0.48638252     0.21600
C1033       C  0.27262336  0.64410462  0.50068682    -0.20400
C1034       C  0.26090761  0.64472303  0.51654928    -0.11200
C1035       C  0.26888804  0.64478259  0.46972088    -0.15400
C1036       C  0.25792030  0.65695113  0.45607008    -0.29200
C1037       C  0.21879044  0.64630032  0.53496154    -0.03500
C1038       C  0.23075236  0.65706465  0.54866613    -0.40000
H1039       H  0.19297244  0.64974896  0.50519947     0.12700
H1040       H  0.21334660  0.64902674  0.47751745     0.12400
H1041       H  0.29485228  0.64197449  0.49957608     0.11800
H1042       H  0.27436176  0.64266473  0.52732154     0.12000
H1043       H  0.28841415  0.63374629  0.46872908     0.14800
H1044       H  0.23931678  0.66944824  0.45699077     0.13500
H1045       H  0.19816880  0.63723189  0.53581275     0.11200
H1046       H  0.25059336  0.66772362  0.54783982     0.13200
C1047       C  0.16494368  0.51493818  0.37130657     0.19300
C1048       C  0.15836074  0.54295138  0.37433052    -0.18800
C1049       C  0.17836366  0.56141690  0.38057759    -0.11000
C1050       C  0.20540691  0.55208804  0.38402753     0.21600
C1051       C  0.21187047  0.52401797  0.38119364    -0.20400
C1052       C  0.19193977  0.50561389  0.37487244    -0.11200
C1053       C  0.22711344  0.57052556  0.39124169    -0.15400
C1054       C  0.22726752  0.59843642  0.38949914    -0.29200
C1055       C  0.14278263  0.49575470  0.36536400    -0.03500
C1056       C  0.14776866  0.47173178  0.35737060    -0.40000
H1057       H  0.13759508  0.55053884  0.37194331     0.12700
H1058       H  0.17232577  0.58268433  0.38307341     0.12400
H1059       H  0.23243735  0.51623797  0.38396909     0.11800
H1060       H  0.19762787  0.48400047  0.37326990     0.12000
H1061       H  0.24432744  0.56055942  0.39770334     0.14800
H1062       H  0.21123565  0.60892850  0.38233166     0.13500
H1063       H  0.12145105  0.50188804  0.36744953     0.11200
H1064       H  0.16872923  0.46575459  0.35428556     0.13200
C1065       C  0.31658579  0.77085189  0.38072405     0.19300
C1066       C  0.31646740  0.79557040  0.39000933    -0.18800
C1067       C  0.32382667  0.82106242  0.38274680    -0.11000
C1068       C  0.33183052  0.82239841  0.36597998     0.21600
C1069       C  0.33108120  0.79789684  0.35649845    -0.20400
C1070       C  0.32374313  0.77231097  0.36377982    -0.11200
C1071       C  0.34147446  0.84884272  0.35813051    -0.15400
C1072       C  0.35386924  0.86930221  0.36687859    -0.29200
C1073       C  0.31032365  0.74415814  0.38952045    -0.03500
C1074       C  0.30483499  0.71974409  0.38196234    -0.40000
H1075       H  0.31083067  0.79514850  0.40302736     0.12700
H1076       H  0.32316846  0.83962959  0.39032566     0.12400
H1077       H  0.33700723  0.79841126  0.34353048     0.11800
H1078       H  0.32451398  0.75382710  0.35616304     0.12000
H1079       H  0.34006137  0.85073583  0.34467025     0.14800
H1080       H  0.35703682  0.86706325  0.38019441     0.13500
H1081       H  0.31007686  0.74471638  0.40303796     0.11200
H1082       H  0.30392921  0.71828844  0.36852424     0.13200
C1083       C  0.57991150  0.48035125  0.24414290     0.19300
C1084       C  0.55648539  0.48281356  0.25422442    -0.18800
C1085       C  0.55844021  0.49564082  0.26982390    -0.11000
C1086       C  0.58384479  0.50679042  0.27547647     0.21600
C1087       C  0.60705514  0.50498774  0.26516661    -0.20400
C1088       C  0.60521878  0.49171116  0.24973633    -0.11200
C1089       C  0.58662818  0.52139524  0.29169896    -0.15400
C1090       C  0.57140395  0.51476972  0.30509927    -0.29200
C1091       C  0.57738448  0.46682453  0.22759355    -0.03500
C1092       C  0.59770428  0.45102338  0.22135823    -0.40000
H1093       H  0.53667464  0.47459321  0.25006511     0.12700
H1094       H  0.53994421  0.49736748  0.27723669     0.12400
H1095       H  0.62675307  0.51376289  0.26911678     0.11800
H1096       H  0.62347652  0.49085700  0.24204581     0.12000
H1097       H  0.60273734  0.53721695  0.29288877     0.14800
H1098       H  0.55658644  0.49767469  0.30451348     0.13500
H1099       H  0.55811283  0.46917282  0.22065461     0.11200
H1100       H  0.61617338  0.44701043  0.22878356     0.13200
C1101       C  0.70067455  0.42695264  0.39905012     0.19300
C1102       C  0.70488124  0.45595599  0.39831099    -0.18800
C1103       C  0.68394705  0.47370294  0.39257345    -0.11000
C1104       C  0.65814946  0.46280865  0.38748899     0.21600
C1105       C  0.65350505  0.43394543  0.38883414    -0.20400
C1106       C  0.67452641  0.41613102  0.39449176    -0.11200
C1107       C  0.63570766  0.48101430  0.38086545    -0.15400
C1108       C  0.64095198  0.50470025  0.37238765    -0.29200
C1109       C  0.72409197  0.40906267  0.40473453    -0.03500
C1110       C  0.72573443  0.38140723  0.40201759    -0.40000
H1111       H  0.72461247  0.46494210  0.40200988     0.12700
H1112       H  0.68797763  0.49593967  0.39227765     0.12400
H1113       H  0.63365981  0.42509656  0.38525145     0.11800
H1114       H  0.67001809  0.39405602  0.39536784     0.12000
H1115       H  0.61442275  0.47383936  0.38202438     0.14800
H1116       H  0.66217310  0.51104108  0.37003498     0.13500
H1117       H  0.74149139  0.41946177  0.41078307     0.11200
H1118       H  0.70927265  0.37032573  0.39557316     0.13200
C1119       C  0.45864536  0.57009982  0.38168261     0.19300
C1120       C  0.45176730  0.57727994  0.39802758    -0.18800
C1121       C  0.42464659  0.58486967  0.40199427    -0.11000
C1122       C  0.40374615  0.58502120  0.38966684     0.21600
C1123       C  0.41038922  0.57643063  0.37352465    -0.20400
C1124       C  0.43755959  0.56925136  0.36951355    -0.11200
C1125       C  0.37496079  0.59425326  0.39304191    -0.15400
C1126       C  0.36864011  0.61290608  0.40486809    -0.29200
C1127       C  0.48784024  0.56334973  0.37765910    -0.03500
C1128       C  0.49921680  0.57030588  0.36298521    -0.40000
H1129       H  0.46756795  0.57759341  0.40768177     0.12700
H1130       H  0.42014972  0.59044739  0.41469839     0.12400
H1131       H  0.39460284  0.57590267  0.36385878     0.11800
H1132       H  0.44200284  0.56292837  0.35692047     0.12000
H1133       H  0.35870688  0.58723911  0.38457412     0.14800
H1134       H  0.38472665  0.62147668  0.41287411     0.13500
H1135       H  0.50070875  0.55397725  0.38732337     0.11200
H1136       H  0.48703645  0.58151747  0.35372174     0.13200
C1137       C  0.73802900  0.83031178  0.48811305     0.19300
C1138       C  0.76664005  0.82790043  0.49104341    -0.18800
C1139       C  0.77714560  0.82490411  0.50726112    -0.11000
C1140       C  0.75912790  0.82413377  0.52094569     0.21600
C1141       C  0.73051227  0.82587123  0.51794686    -0.20400
C1142       C  0.72004329  0.82894130  0.50177662    -0.11200
C1143       C  0.76898426  0.82132920  0.53849815    -0.15400
C1144       C  0.79489153  0.82741757  0.54368376    -0.29200
C1145       C  0.72762459  0.83290255  0.47066480    -0.03500
C1146       C  0.70261720  0.84339987  0.46660871    -0.40000
H1147       H  0.78093794  0.82837696  0.48073833     0.12700
H1148       H  0.79927089  0.82281473  0.50892034     0.12400
H1149       H  0.71612027  0.82495363  0.52819586     0.11800
H1150       H  0.69782733  0.82964375  0.50008938     0.12000
H1151       H  0.75366095  0.81571722  0.54777879     0.14800
H1152       H  0.81042468  0.83448538  0.53494831     0.13500
H1153       H  0.74125737  0.82629505  0.46076391     0.11200
H1154       H  0.68915582  0.85152590  0.47613219     0.13200
C1155       C  0.80183460  0.96428713  0.36990976     0.19300
C1156       C  0.80601900  0.93592523  0.37354122    -0.18800
C1157       C  0.78514143  0.91990687  0.38097143    -0.11000
C1158       C  0.75957188  0.93204771  0.38500924     0.21600
C1159       C  0.75557232  0.96049398  0.38159174    -0.20400
C1160       C  0.77639108  0.97646373  0.37414530    -0.11200
C1161       C  0.73710202  0.91630117  0.39350606    -0.15400
C1162       C  0.73500766  0.88830455  0.39359507    -0.29200
C1163       C  0.82474265  0.98086038  0.36239743    -0.03500
C1164       C  0.82033363  0.00423525  0.35344274    -0.40000
H1165       H  0.82556007  0.92614228  0.37066323     0.12700
H1166       H  0.78949023  0.89829681  0.38386995     0.12400
H1167       H  0.73628719  0.97049256  0.38481052     0.11800
H1168       H  0.77264193  0.99846993  0.37214973     0.12000
H1169       H  0.72124341  0.92836234  0.39969432     0.14800
H1170       H  0.74964712  0.87561935  0.38688428     0.13500
H1171       H  0.84578314  0.97329138  0.36398601     0.11200
H1172       H  0.79939730  0.01125235  0.35090451     0.13200
C1173       C  0.51294935  0.91870715  0.36965339     0.19300
C1174       C  0.52430935  0.92765563  0.38486101    -0.18800
C1175       C  0.54960773  0.91722288  0.39069502    -0.11000
C1176       C  0.56424165  0.89736601  0.38142096     0.21600
C1177       C  0.55325385  0.88899213  0.36599150    -0.20400
C1178       C  0.52798736  0.89950340  0.36012847    -0.11200
C1179       C  0.59089844  0.88485961  0.38720572    -0.15400
C1180       C  0.60128006  0.88727662  0.40274743    -0.29200
C1181       C  0.48529885  0.92966307  0.36450631    -0.03500
C1182       C  0.46952889  0.91874879  0.35224820    -0.40000
H1183       H  0.51339436  0.94264059  0.39239955     0.12700
H1184       H  0.55742560  0.92499193  0.40241353     0.12400
H1185       H  0.56418458  0.87402125  0.35845259     0.11800
H1186       H  0.52059388  0.89247848  0.34814332     0.12000
H1187       H  0.60208010  0.87216507  0.37835632     0.14800
H1188       H  0.59054645  0.89902588  0.41215171     0.13500
H1189       H  0.47671734  0.94641456  0.37190002     0.11200
H1190       H  0.47672369  0.90136842  0.34493607     0.13200
C1191       C  0.64607582  0.72213444  0.39170080     0.19300
C1192       C  0.65423253  0.71065633  0.37647338    -0.18800
C1193       C  0.64466833  0.68435967  0.37150628    -0.11000
C1194       C  0.62659474  0.66895522  0.38171179     0.21600
C1195       C  0.61907691  0.68001986  0.39711982    -0.20400
C1196       C  0.62860448  0.70626406  0.40209007    -0.11200
C1197       C  0.61554517  0.64109953  0.37701677    -0.15400
C1198       C  0.61342925  0.63201739  0.36125246    -0.29200
C1199       C  0.65619429  0.75060892  0.39608752    -0.03500
C1200       C  0.64748545  0.76520515  0.40929017    -0.40000
H1201       H  0.66797385  0.72216581  0.36830805     0.12700
H1202       H  0.65172822  0.67615433  0.35979046     0.12400
H1203       H  0.60549480  0.66838662  0.40532076     0.11800
H1204       H  0.62214105  0.71365778  0.41409114     0.12000
H1205       H  0.60766711  0.62791747  0.38698718     0.14800
H1206       H  0.61998702  0.64503623  0.35091601     0.13500
H1207       H  0.67099331  0.76039994  0.38773405     0.11200
H1208       H  0.63243834  0.75668825  0.41785191     0.13200
C1209       C  0.70297050  0.14110463  0.01578772     0.19300
C1210       C  0.73043565  0.14674479  0.01122457    -0.18800
C1211       C  0.73794285  0.14802807  0.99448354    -0.11000
C1212       C  0.71800413  0.14381827  0.98187596     0.21600
C1213       C  0.69040131  0.13890819  0.98639739    -0.20400
C1214       C  0.68291309  0.13741690  0.00316256    -0.11200
C1215       C  0.72513965  0.14524356  0.96395027    -0.15400
C1216       C  0.75035953  0.13884557  0.95817269    -0.29200
C1217       C  0.69602385  0.14061187  0.03378250    -0.03500
C1218       C  0.67328622  0.12830011  0.04012252    -0.40000
H1219       H  0.74620836  0.15019262  0.02068035     0.12700
H1220       H  0.75923656  0.15284978  0.99149304     0.12400
H1221       H  0.67457158  0.13607155  0.97690452     0.11800
H1222       H  0.66136405  0.13397152  0.00610601     0.12000
H1223       H  0.70875904  0.15060837  0.95515149     0.14800
H1224       H  0.76657050  0.13186229  0.96662930     0.13500
H1225       H  0.71071979  0.15041894  0.04228088     0.11200
H1226       H  0.65878640  0.11718599  0.03215388     0.13200
C1227       C  0.25579968  0.31172728  0.02736370     0.19300
C1228       C  0.24745682  0.28762813  0.01876922    -0.18800
C1229       C  0.23382630  0.28959895  0.00335374    -0.11000
C1230       C  0.22790216  0.31586479  0.99626682     0.21600
C1231       C  0.23598586  0.33996918  0.00496747    -0.20400
C1232       C  0.24992181  0.33798605  0.02028378    -0.11200
C1233       C  0.21250174  0.31901539  0.98020566    -0.15400
C1234       C  0.21208835  0.29952840  0.96817964    -0.29200
C1235       C  0.26826319  0.30879616  0.04428733    -0.03500
C1236       C  0.28556300  0.32774364  0.05114751    -0.40000
H1237       H  0.25127915  0.26715707  0.02409275     0.12700
H1238       H  0.22728562  0.27053560  0.99730567     0.12400
H1239       H  0.23139322  0.36046757  0.99991477     0.11800
H1240       H  0.25522276  0.35702269  0.02678266     0.12000
H1241       H  0.20232719  0.33885284  0.97780817     0.14800
H1242       H  0.22373072  0.28036246  0.96971180     0.13500
H1243       H  0.26277131  0.29027525  0.05143468     0.11200
H1244       H  0.29260702  0.34560267  0.04393880     0.13200
C1245       C  0.90992704  0.51050597  0.73935686     0.19300
C1246       C  0.88625895  0.50101947  0.74768889    -0.18800
C1247       C  0.88860663  0.48731080  0.76303549    -0.11000
C1248       C  0.91474512  0.48314066  0.77049831     0.21600
C1249       C  0.93831218  0.49385850  0.76257426    -0.20400
C1250       C  0.93600158  0.50722280  0.74707961    -0.11200
C1251       C  0.91766291  0.46848640  0.78676033    -0.15400
C1252       C  0.90074280  0.44739207  0.79117038    -0.29200
C1253       C  0.90675813  0.52313775  0.72251160    -0.03500
C1254       C  0.92563131  0.51947698  0.71053898    -0.40000
H1255       H  0.86591558  0.50364758  0.74211841     0.12700
H1256       H  0.86991180  0.48023818  0.76910639     0.12400
H1257       H  0.95860380  0.49142445  0.76824529     0.11800
H1258       H  0.95458230  0.51504123  0.74120609     0.12000
H1259       H  0.93423741  0.47493247  0.79515417     0.14800
H1260       H  0.88520568  0.43980808  0.78242790     0.13500
H1261       H  0.88719155  0.53305973  0.71934243     0.11200
H1262       H  0.94416551  0.50742984  0.71316285     0.13200
C1263       C  0.06547910  0.36716560  0.88895134     0.19300
C1264       C  0.06158760  0.37300114  0.87193715    -0.18800
C1265       C  0.03598791  0.38213389  0.86578638    -0.11000
C1266       C  0.01343649  0.38554182  0.87653240     0.21600
C1267       C  0.01742947  0.38041085  0.89359721    -0.20400
C1268       C  0.04304296  0.37117797  0.89976553    -0.11200
C1269       C  0.98567212  0.39471156  0.87043299    -0.15400
C1270       C  0.97650547  0.39039677  0.85477562    -0.29200
C1271       C  0.09309076  0.35659223  0.89456785    -0.03500
C1272       C  0.10016945  0.35031705  0.91041985    -0.40000
H1273       H  0.07846419  0.37040884  0.86329702     0.12700
H1274       H  0.03411627  0.38676618  0.85264219     0.12400
H1275       H  0.00049418  0.38312087  0.90217870     0.11800
H1276       H  0.04482952  0.36710205  0.91295010     0.12000
H1277       H  0.97179816  0.40412277  0.87935151     0.14800
H1278       H  0.98934846  0.37957963  0.84591384     0.13500
H1279       H  0.10842528  0.35330723  0.88495796     0.11200
H1280       H  0.08574993  0.35300514  0.92050817     0.13200
C1281       C  0.79527414  0.26168269  0.87688004     0.19300
C1282       C  0.80285052  0.26500906  0.86015900    -0.18800
C1283       C  0.81731891  0.28881973  0.85488907    -0.11000
C1284       C  0.82439774  0.30992774  0.86631375     0.21600
C1285       C  0.81584406  0.30700809  0.88287971    -0.20400
C1286       C  0.80140063  0.28327257  0.88812467    -0.11200
C1287       C  0.84022212  0.33551944  0.86170079    -0.15400
C1288       C  0.85387082  0.33929432  0.84732815    -0.29200
C1289       C  0.78204395  0.23504969  0.88221645    -0.03500
C1290       C  0.78417154  0.22500817  0.89783430    -0.40000
H1291       H  0.79809913  0.24882304  0.85119932     0.12700
H1292       H  0.82275679  0.29044615  0.84191306     0.12400
H1293       H  0.82056921  0.32311255  0.89189485     0.11800
H1294       H  0.79509413  0.28203457  0.90098085     0.12000
H1295       H  0.84131557  0.35198973  0.87093963     0.14800
H1296       H  0.85405567  0.32330736  0.83785322     0.13500
H1297       H  0.77306868  0.22180380  0.87262123     0.11200
H1298       H  0.79487787  0.23684357  0.90740460     0.13200
C1299       C  0.07708313  0.97373472  0.74688300     0.19300
C1300       C  0.05404170  0.98799087  0.75303880    -0.18800
C1301       C  0.05399931  0.99830937  0.76928076    -0.11000
C1302       C  0.07719170  0.99466363  0.77979003     0.21600
C1303       C  0.10041847  0.98079778  0.77354628    -0.20400
C1304       C  0.10040986  0.97036511  0.75730600    -0.11200
C1305       C  0.07817549  0.00532753  0.79716253    -0.15400
C1306       C  0.05544441  0.01078106  0.80611184    -0.29200
C1307       C  0.07662671  0.96455762  0.72921437    -0.03500
C1308       C  0.09301423  0.94453425  0.72299213    -0.40000
H1309       H  0.03599328  0.99134099  0.74518297     0.12700
H1310       H  0.03599236  0.00960998  0.77334050     0.12400
H1311       H  0.11870346  0.97799817  0.78128589     0.11800
H1312       H  0.11892214  0.96034629  0.75288418     0.12000
H1313       H  0.09835996  0.00707980  0.80318261     0.14800
H1314       H  0.03494542  0.00738529  0.80087570     0.13500
H1315       H  0.06198466  0.97488481  0.72090567     0.11200
H1316       H  0.10702024  0.93294473  0.73104049     0.13200
C1317       C  0.88685337  0.08892247  0.88839786     0.19300
C1318       C  0.89635113  0.06171520  0.89130295    -0.18800
C1319       C  0.92168381  0.05301557  0.88489540    -0.11000
C1320       C  0.93831145  0.07169734  0.87572030     0.21600
C1321       C  0.92870489  0.09892969  0.87285198    -0.20400
C1322       C  0.90330974  0.10751972  0.87914181    -0.11200
C1323       C  0.96578688  0.06405767  0.86898964    -0.15400
C1324       C  0.98008995  0.04116216  0.87348497    -0.29200
C1325       C  0.86013992  0.09761568  0.89557509    -0.03500
C1326       C  0.84361971  0.11643873  0.88811615    -0.40000
H1327       H  0.88397672  0.04706045  0.89840896     0.12700
H1328       H  0.92786607  0.03167726  0.88713926     0.12400
H1329       H  0.94108218  0.11378517  0.86589384     0.11800
H1330       H  0.89691834  0.12888765  0.87704337     0.12000
H1331       H  0.97532023  0.07878866  0.86040661     0.14800
H1332       H  0.97193517  0.02625186  0.88238094     0.13500
H1333       H  0.85337493  0.08743969  0.90697139     0.11200
H1334       H  0.84914175  0.12532447  0.87613004     0.13200
C1335       C  0.12905841  0.19629643  0.89624672     0.19300
C1336       C  0.11693022  0.17465581  0.90550426    -0.18800
C1337       C  0.10732774  0.15040924  0.89772095    -0.11000
C1338       C  0.10956540  0.14721514  0.88036258     0.21600
C1339       C  0.12111339  0.16920628  0.87104072    -0.20400
C1340       C  0.13083081  0.19346758  0.87886606    -0.11200
C1341       C  0.09908157  0.12190068  0.87152122    -0.15400
C1342       C  0.09392122  0.09742857  0.87923641    -0.29200
C1343       C  0.13815100  0.22201129  0.90506853    -0.03500
C1344       C  0.15804049  0.23929128  0.89942657    -0.40000
H1345       H  0.11480264  0.17654294  0.91885549     0.12700
H1346       H  0.09761603  0.13466651  0.90540466     0.12400
H1347       H  0.12259979  0.16762607  0.85764740     0.11800
H1348       H  0.13913485  0.21014052  0.87122757     0.12000
H1349       H  0.09560783  0.12342600  0.85817306     0.14800
H1350       H  0.09814043  0.09490434  0.89241038     0.13500
H1351       H  0.12839776  0.22659532  0.91687406     0.11200
H1352       H  0.16901072  0.23452472  0.88807566     0.13200
C1353       C  0.40177124  0.48153592  0.77226789     0.19300
C1354       C  0.42624412  0.47309771  0.76457815    -0.18800
C1355       C  0.42599534  0.46478152  0.74794125    -0.11000
C1356       C  0.40105586  0.46428655  0.73875690     0.21600
C1357       C  0.37644480  0.47207536  0.74659591    -0.20400
C1358       C  0.37678409  0.48086949  0.76316176    -0.11200
C1359       C  0.39997149  0.45485004  0.72120532    -0.15400
C1360       C  0.42117240  0.45853238  0.71069114    -0.29200
C1361       C  0.40265705  0.48965611  0.79000558    -0.03500
C1362       C  0.38677956  0.51004585  0.79611315    -0.40000
H1363       H  0.44564375  0.47305582  0.77146078     0.12700
H1364       H  0.44521184  0.45811820  0.74244880     0.12400
H1365       H  0.35692533  0.47149397  0.73984503     0.11800
H1366       H  0.35745716  0.48653066  0.76893169     0.12000
H1367       H  0.38068925  0.44587537  0.71657177     0.14800
H1368       H  0.43977975  0.46943994  0.71474381     0.13500
H1369       H  0.41748506  0.47919427  0.79813176     0.11200
H1370       H  0.37311900  0.52179737  0.78789791     0.13200
C1371       C  0.31187339  0.42586105  0.87552099     0.19300
C1372       C  0.30928843  0.41888383  0.89239162    -0.18800
C1373       C  0.28914111  0.39981221  0.89757096    -0.11000
C1374       C  0.27135242  0.38707836  0.88590300     0.21600
C1375       C  0.27473008  0.39306091  0.86894417    -0.20400
C1376       C  0.29468816  0.41243431  0.86376802    -0.11200
C1377       C  0.24952921  0.36714758  0.89116266    -0.15400
C1378       C  0.23583463  0.37016971  0.90550444    -0.29200
C1379       C  0.33276114  0.44710064  0.87066983    -0.03500
C1380       C  0.32943892  0.46394972  0.85741776    -0.40000
H1381       H  0.32259454  0.42859951  0.90163440     0.12700
H1382       H  0.28768272  0.39488098  0.91069006     0.12400
H1383       H  0.26158504  0.38307869  0.85972072     0.11800
H1384       H  0.29676769  0.41663210  0.85059883     0.12000
H1385       H  0.24377342  0.35035996  0.88274843     0.14800
H1386       H  0.23998080  0.38807110  0.91339211     0.13500
H1387       H  0.35042223  0.45035311  0.87892961     0.11200
H1388       H  0.31099021  0.46236379  0.84966211     0.13200
C1389       C  0.56322120  0.97154457  0.73525694     0.19300
C1390       C  0.53828387  0.96907952  0.74398725    -0.18800
C1391       C  0.53809302  0.95980519  0.76053171    -0.11000
C1392       C  0.56297933  0.95257043  0.76869603     0.21600
C1393       C  0.58783056  0.95434239  0.75980764    -0.20400
C1394       C  0.58802556  0.96372798  0.74329917    -0.11200
C1395       C  0.56397065  0.94243873  0.78623969    -0.15400
C1396       C  0.54387779  0.94692120  0.79740434    -0.29200
C1397       C  0.56249390  0.98172401  0.71772420    -0.03500
C1398       C  0.58408846  0.99455872  0.71042774    -0.40000
H1399       H  0.51883783  0.97454161  0.73800424     0.12700
H1400       H  0.51837771  0.95793560  0.76669550     0.12400
H1401       H  0.60725435  0.94850217  0.76568529     0.11800
H1402       H  0.60756925  0.96437445  0.73684385     0.12000
H1403       H  0.58273334  0.93192708  0.79036821     0.14800
H1404       H  0.52556127  0.95872686  0.79404009     0.13500
H1405       H  0.54310872  0.97975274  0.71084124     0.11200
H1406       H  0.60315318  0.99814200  0.71734820     0.13200
C1407       C  0.67093599  0.06982452  0.87474518     0.19300
C1408       C  0.64220503  0.07129286  0.87695137    -0.18800
C1409       C  0.62483399  0.04986765  0.87116356    -0.11000
C1410       C  0.63600403  0.02667080  0.86290601     0.21600
C1411       C  0.66460708  0.02601250  0.86004213    -0.20400
C1412       C  0.68188363  0.04728879  0.86586233    -0.11200
C1413       C  0.61904339  0.00260594  0.85706238    -0.15400
C1414       C  0.59289094  0.99716103  0.86178779    -0.29200
C1415       C  0.68924720  0.09173337  0.88190221    -0.03500
C1416       C  0.71465262  0.08558406  0.88773602    -0.40000
H1417       H  0.63326828  0.08871667  0.88351031     0.12700
H1418       H  0.60284131  0.05169905  0.87321024     0.12400
H1419       H  0.67374953  0.00870537  0.85346830     0.11800
H1420       H  0.70382893  0.04603352  0.86337494     0.12000
H1421       H  0.62920269  0.98775050  0.84898727     0.14800
H1422       H  0.58203142  0.01089260  0.87014252     0.13500
H1423       H  0.68126001  0.11276872  0.88320769     0.11200
H1424       H  0.72188169  0.06416230  0.88756638     0.13200
C1425       C  0.20464151  0.80969491  0.02180197     0.19300
C1426       C  0.19152495  0.80381742  0.00659654    -0.18800
C1427       C  0.20677658  0.80224325  0.99195303    -0.11000
C1428       C  0.23560913  0.80676313  0.99217648     0.21600
C1429       C  0.24869265  0.81315873  0.00734822    -0.20400
C1430       C  0.23343748  0.81448877  0.02205243    -0.11200
C1431       C  0.25200739  0.80727040  0.97660771    -0.15400
C1432       C  0.24435857  0.79317341  0.96288756    -0.29200
C1433       C  0.18746451  0.81146467  0.03698603    -0.03500
C1434       C  0.19733769  0.80586790  0.05229948    -0.40000
H1435       H  0.16933228  0.80046123  0.00603743     0.12700
H1436       H  0.19571245  0.79837121  0.98043574     0.12400
H1437       H  0.27075720  0.81732565  0.00779804     0.11800
H1438       H  0.24413885  0.81994875  0.03346303     0.12000
H1439       H  0.27044366  0.82036714  0.97628083     0.14800
H1440       H  0.22668013  0.77911304  0.96318463     0.13500
H1441       H  0.16557073  0.81605667  0.03540561     0.11200
H1442       H  0.21873375  0.79962096  0.05407578     0.13200
C1443       C  0.18131480  0.88957371  0.88691278     0.19300
C1444       C  0.15462050  0.88428606  0.88066532    -0.18800
C1445       C  0.13755108  0.90638256  0.87568507    -0.11000
C1446       C  0.14714815  0.93413662  0.87674558     0.21600
C1447       C  0.17425177  0.93921284  0.88233336    -0.20400
C1448       C  0.19116806  0.91723242  0.88738606    -0.11200
C1449       C  0.13006700  0.95838881  0.87172172    -0.15400
C1450       C  0.10225580  0.95816059  0.87130385    -0.29200
C1451       C  0.19902247  0.86606310  0.89237461    -0.03500
C1452       C  0.21791313  0.86907359  0.90458278    -0.40000
H1453       H  0.14686976  0.86306294  0.87982592     0.12700
H1454       H  0.11713611  0.90159468  0.87083964     0.12400
H1455       H  0.18233262  0.96034326  0.88291851     0.11800
H1456       H  0.21208289  0.92195879  0.89143955     0.12000
H1457       H  0.14096299  0.97771635  0.86881572     0.14800
H1458       H  0.09061196  0.93961970  0.87475051     0.13500
H1459       H  0.19642338  0.84596962  0.88630959     0.11200
H1460       H  0.21948028  0.88858007  0.91136331     0.13200
C1461       C  0.44304042  0.88650279  0.88478389     0.19300
C1462       C  0.42028053  0.90196849  0.89013113    -0.18800
C1463       C  0.39768612  0.88859199  0.89749931    -0.11000
C1464       C  0.39771081  0.85948079  0.89994136     0.21600
C1465       C  0.42105944  0.84416654  0.89532105    -0.20400
C1466       C  0.44344929  0.85749169  0.88763312    -0.11200
C1467       C  0.37330858  0.84470869  0.90688350    -0.15400
C1468       C  0.34747786  0.85231003  0.90263690    -0.29200
C1469       C  0.46657342  0.90123806  0.87688848    -0.03500
C1470       C  0.48093435  0.89007431  0.86436747    -0.40000
H1471       H  0.41979120  0.92440152  0.88833584     0.12700
H1472       H  0.38025391  0.90103955  0.90134574     0.12400
H1473       H  0.42165491  0.82177318  0.89727462     0.11800
H1474       H  0.46116354  0.84517908  0.88409434     0.12000
H1475       H  0.37656113  0.82601592  0.91436477     0.14800
H1476       H  0.34432980  0.86949815  0.89395885     0.13500
H1477       H  0.47178744  0.92206870  0.88125073     0.11200
H1478       H  0.47487578  0.86993438  0.85932084     0.13200
C1479       C  0.33069988  0.64324382  0.87094190     0.19300
C1480       C  0.31937417  0.66548953  0.86174165    -0.18800
C1481       C  0.31072261  0.68980215  0.86970417    -0.11000
C1482       C  0.31342883  0.69230671  0.88707699     0.21600
C1483       C  0.32478072  0.67011764  0.89623582    -0.20400
C1484       C  0.33330851  0.64585753  0.88831783    -0.11200
C1485       C  0.30655266  0.71823961  0.89606237    -0.15400
C1486       C  0.28853964  0.73745431  0.89045657    -0.29200
C1487       C  0.34141056  0.61856169  0.86198126    -0.03500
C1488       C  0.34565731  0.59369804  0.86937864    -0.40000
H1489       H  0.31756600  0.66419482  0.84832272     0.12700
H1490       H  0.30282410  0.70680785  0.86216513     0.12400
H1491       H  0.32746250  0.67172187  0.90959565     0.11800
H1492       H  0.34283414  0.62975343  0.89586181     0.12000
H1493       H  0.31654401  0.72139710  0.90808571     0.14800
H1494       H  0.27722090  0.73446097  0.87888333     0.13500
H1495       H  0.34627462  0.62104944  0.84887514     0.11200
H1496       H  0.33975727  0.59017104  0.88220453     0.13200
C1497       C  0.71627143  0.63522910  0.97004148     0.19300
C1498       C  0.70170505  0.64115041  0.98463574    -0.18800
C1499       C  0.71498681  0.63986102  0.00021481    -0.11000
C1500       C  0.74303111  0.63209678  0.00146350     0.21600
C1501       C  0.75735917  0.62573928  0.98688321    -0.20400
C1502       C  0.74425250  0.62743533  0.97135450    -0.11200
C1503       C  0.75755005  0.62845523  0.01771781    -0.15400
C1504       C  0.75109216  0.64252548  0.03157538    -0.29200
C1505       C  0.70176009  0.63581406  0.95363669    -0.03500
C1506       C  0.71489027  0.64313488  0.93957342    -0.40000
H1507       H  0.68001598  0.64676168  0.98397116     0.12700
H1508       H  0.70305632  0.64409736  0.01123578     0.12400
H1509       H  0.77880886  0.61925029  0.98751816     0.11800
H1510       H  0.75587664  0.62183144  0.96043314     0.12000
H1511       H  0.77469479  0.61383447  0.01818817     0.14800
H1512       H  0.73495087  0.65821181  0.03127007     0.13500
H1513       H  0.67989755  0.63034900  0.95314368     0.11200
H1514       H  0.73619143  0.65045980  0.94020076     0.13200
C1515       C  0.81011407  0.50673890  0.85836432     0.19300
C1516       C  0.79262698  0.52222258  0.84780614    -0.18800
C1517       C  0.77348951  0.54092439  0.85434559    -0.11000
C1518       C  0.77129574  0.54431967  0.87165923     0.21600
C1519       C  0.78860322  0.52868043  0.88221779    -0.20400
C1520       C  0.80792806  0.51017781  0.87567400    -0.11200
C1521       C  0.75027329  0.56284829  0.87910722    -0.15400
C1522       C  0.74060017  0.58578783  0.87138710    -0.29200
C1523       C  0.82875717  0.48567804  0.85097785    -0.03500
C1524       C  0.85194056  0.47626252  0.85848983    -0.40000
H1525       H  0.79357340  0.51960598  0.83444595     0.12700
H1526       H  0.75991166  0.55198488  0.84583345     0.12400
H1527       H  0.78703275  0.53065258  0.89559354     0.11800
H1528       H  0.82040208  0.49797169  0.88422903     0.12000
H1529       H  0.74329002  0.55802422  0.89162297     0.14800
H1530       H  0.74879293  0.59218091  0.85942152     0.13500
H1531       H  0.82318719  0.47767936  0.83876018     0.11200
H1532       H  0.85902131  0.48511518  0.87017772     0.13200
C1533       C  0.56172636  0.58348095  0.87519887     0.19300
C1534       C  0.54438363  0.56641936  0.88485674    -0.18800
C1535       C  0.51807914  0.55861134  0.87903543    -0.11000
C1536       C  0.50846773  0.56788657  0.86338080     0.21600
C1537       C  0.52577067  0.58501677  0.85374367    -0.20400
C1538       C  0.55210928  0.59268973  0.85951682    -0.11200
C1539       C  0.48001425  0.56168713  0.85713625    -0.15400
C1540       C  0.46474839  0.53967397  0.86218469    -0.29200
C1541       C  0.58873532  0.59286453  0.88234956    -0.03500
C1542       C  0.60988499  0.60204441  0.87301007    -0.40000
H1543       H  0.55108121  0.55939048  0.89707654     0.12700
H1544       H  0.50509528  0.54610698  0.88707436     0.12400
H1545       H  0.51873367  0.59279798  0.84175672     0.11800
H1546       H  0.56434168  0.60662477  0.85187977     0.12000
H1547       H  0.47140284  0.57572946  0.84777901     0.14800
H1548       H  0.47319864  0.52456392  0.87092984     0.13500
H1549       H  0.59124329  0.59229100  0.89580324     0.11200
H1550       H  0.60842768  0.60154232  0.85953936     0.13200
C1551       C  0.64237174  0.76317811  0.87905639     0.19300
C1552       C  0.63357536  0.78396753  0.88998204    -0.18800
C1553       C  0.62308804  0.80920770  0.88384896    -0.11000
C1554       C  0.62098546  0.81400170  0.86656183     0.21600
C1555       C  0.63013315  0.79324789  0.85569089    -0.20400
C1556       C  0.64070777  0.76813246  0.86182352    -0.11200
C1557       C  0.60760550  0.83914824  0.85921049    -0.15400
C1558       C  0.60081652  0.86205109  0.86781146    -0.29200
C1559       C  0.65082868  0.73566201  0.88584301    -0.03500
C1560       C  0.66843348  0.71882114  0.87792169    -0.40000
H1561       H  0.63435916  0.78045232  0.90330332     0.12700
H1562       H  0.61583155  0.82425012  0.89274747     0.12400
H1563       H  0.62847466  0.79619096  0.84234555     0.11800
H1564       H  0.64646522  0.75224024  0.85300677     0.12000
H1565       H  0.60243561  0.83845657  0.84602405     0.14800
H1566       H  0.60604121  0.86406607  0.88088246     0.13500
H1567       H  0.64200051  0.72892310  0.89760454     0.11200
H1568       H  0.67881699  0.72590896  0.86673173     0.13200
loop_ 
_geom_bond_atom_site_label_1 
_geom_bond_atom_site_label_2 
_geom_bond_distance 
_geom_bond_site_symmetry_2 
_ccdc_geom_bond_type 
In1           O3   2.249       .  S
In1           O4   2.238       .  S
In1          O12   2.235       .  S
In1           O6   2.266       .  S
In1           O8   2.268       .  S
In1           O9   2.235       .  S
In1          O10   2.237       .  S
In1          O13   2.249       .  S
C2            O8   1.263       .  A
C2           O10   1.256       .  A
C2         C1542   1.474       .  S
O3           C11   1.261       .  A
O4           C11   1.258       .  A
C5           O12   1.259       .  A
C5            O6   1.264       .  A
C5         C1506   1.475       .  S
C7            O9   1.259       .  A
C7           O13   1.263       .  A
C7         C1522   1.471       .  S
C11        C1560   1.469       .  S
In14         O16   2.230       .  S
In14         O17   2.249       .  S
In14         O25   2.239       .  S
In14         O19   2.257       .  S
In14         O21   2.269       .  S
In14         O22   2.241       .  S
In14         O23   2.231       .  S
In14         O26   2.222       .  S
C15          O21   1.263       .  A
C15          O23   1.256       .  A
C15        C1468   1.470       .  S
O16          C24   1.261       .  A
O17          C24   1.260       .  A
C18          O25   1.258       .  A
C18          O19   1.262       .  A
C18        C1432   1.473       .  S
C20          O22   1.264       .  A
C20          O26   1.261       .  A
C20        C1452   1.465       .  S
C24        C1486   1.472       .  S
In27         O29   2.230       .  S
In27         O30   2.253       .  S
In27         O38   2.248       .  S
In27         O32   2.245       .  S
In27         O34   2.244       .  S
In27         O35   2.247       .  S
In27         O36   2.244       .  S
In27         O39   2.241       .  S
C28          O34   1.262       .  A
C28          O36   1.259       .  A
C28        C1558   1.472       .  S
O29          C37   1.261       .  A
O30          C37   1.262       .  A
C31          O38   1.260       .  A
C31          O32   1.262       .  A
C31        C1396   1.475       .  S
C33          O35   1.263       .  A
C33          O39   1.260       .  A
C33        C1470   1.472       .  S
C37        C1414   1.474       .  S
In40         O42   2.233       .  S
In40         O43   2.248       .  S
In40         O51   2.241       .  S
In40         O45   2.241       .  S
In40         O47   2.251       .  S
In40         O48   2.255       .  S
In40         O49   2.238       .  S
In40         O52   2.248       .  S
C41          O47   1.261       .  A
C41          O49   1.258       .  A
C41        C1488   1.470       .  S
O42          C50   1.259       .  A
O43          C50   1.264       .  A
C44          O51   1.262       .  A
C44          O45   1.261       .  A
C44        C1362   1.472       .  S
C46          O48   1.261       .  A
C46          O52   1.261       .  A
C46        C1540   1.477       .  S
C50        C1380   1.470       .  S
In53         O55   2.228       .  S
In53         O56   2.243       .  S
In53         O64   2.245       .  S
In53         O58   2.263       .  S
In53         O60   2.265       .  S
In53         O61   2.252   1_545  S
In53         O62   2.235       .  S
In53         O65   2.231       .  S
C54          O60   1.264       .  A
C54          O62   1.259       .  A
C54        C1342   1.475       .  S
O55          C63   1.263       .  A
O56          C63   1.263       .  A
C57          O64   1.256       .  A
C57          O58   1.260       .  A
C57        C1306   1.474       .  S
C59          O61   1.260       .  A
C59          O65   1.260   1_565  A
C59        C1450   1.471       .  S
C63        C1324   1.471   1_455  S
In66         O68   2.263       .  S
In66         O69   2.250       .  S
In66         O77   2.261       .  S
In66         O71   2.234       .  S
In66         O73   2.261       .  S
In66         O74   2.257       .  S
In66         O75   2.247       .  S
In66         O78   2.242       .  S
C67          O73   1.258       .  A
C67          O75   1.258       .  A
C67        C1288   1.476       .  S
O68          C76   1.261       .  A
O69          C76   1.259       .  A
C70          O77   1.263       .  A
C70          O71   1.259       .  A
C70        C1252   1.473       .  S
C72          O74   1.261       .  A
C72          O78   1.260       .  A
C72        C1524   1.475       .  S
C76        C1270   1.478       .  S
In79         O81   2.241       .  S
In79         O82   2.253       .  S
In79         O90   2.256       .  S
In79         O84   2.259       .  S
In79         O86   2.261       .  S
In79         O87   2.244       .  S
In79         O88   2.246       .  S
In79         O91   2.248       .  S
C80          O86   1.261       .  A
C80          O88   1.259       .  A
C80        C1272   1.479       .  S
O81          C89   1.258       .  A
O82          C89   1.261       .  A
C83          O90   1.260       .  A
C83          O84   1.261       .  A
C83        C1234   1.479       .  S
C85          O87   1.261       .  A
C85          O91   1.264       .  A
C85        C1344   1.477       .  S
C89        C1378   1.470       .  S
In92         O94   2.227       .  S
In92         O95   2.264       .  S
In92        O103   2.248       .  S
In92         O97   2.240       .  S
In92         O99   2.247       .  S
In92        O100   2.250       .  S
In92        O101   2.240       .  S
In92        O104   2.235       .  S
C93          O99   1.262       .  A
C93         O101   1.258       .  A
C93        C1326   1.469       .  S
O94         C102   1.257       .  A
O95         C102   1.263       .  A
C96         O103   1.263       .  A
C96          O97   1.260       .  A
C96        C1216   1.473       .  S
C98         O100   1.263       .  A
C98         O104   1.259       .  A
C98        C1290   1.470       .  S
C102       C1416   1.469       .  S
In105       O107   2.247       .  S
In105       O108   2.242       .  S
In105       O116   2.257       .  S
In105       O110   2.250       .  S
In105       O112   2.251       .  S
In105       O113   2.248       .  S
In105       O114   2.250       .  S
In105       O117   2.244       .  S
C106        O112   1.261       .  A
C106        O114   1.260       .  A
C106       C1180   1.476       .  S
O107        C115   1.262       .  A
O108        C115   1.259       .  A
C109        O116   1.260       .  A
C109        O110   1.260       .  A
C109       C1146   1.476       .  S
C111        O113   1.260       .  A
C111        O117   1.258       .  A
C111       C1200   1.471       .  S
C115       C1162   1.473       .  S
In118       O120   2.241       .  S
In118       O121   2.261       .  S
In118       O129   2.248       .  S
In118       O123   2.259       .  S
In118       O125   2.249       .  S
In118       O126   2.266       .  S
In118       O127   2.235       .  S
In118       O130   2.237       .  S
C119        O125   1.262       .  A
C119        O127   1.262       .  A
C119       C1198   1.473       .  S
O120        C128   1.260       .  A
O121        C128   1.264       .  A
C122        O129   1.259       .  A
C122        O123   1.262       .  A
C122       C1090   1.477       .  S
C124        O126   1.263       .  A
C124        O130   1.257       .  A
C124       C1108   1.474       .  S
C128       C1128   1.476       .  S
In131       O133   2.243       .  S
In131       O134   2.245       .  S
In131       O142   2.251       .  S
In131       O136   2.258       .  S
In131       O138   2.252       .  S
In131       O139   2.252       .  S
In131       O140   2.255       .  S
In131       O143   2.248       .  S
C132        O138   1.260       .  A
C132        O140   1.261       .  A
C132       C1126   1.477       .  S
O133        C141   1.262       .  A
O134        C141   1.259       .  A
C135        O142   1.258       .  A
C135        O136   1.260       .  A
C135       C1036   1.475       .  S
C137        O139   1.259       .  A
C137        O143   1.261       .  A
C137       C1074   1.475       .  S
C141       C1054   1.472       .  S
In144       O146   2.246       .  S
In144       O147   2.252       .  S
In144       O155   2.241       .  S
In144       O149   2.258       .  S
In144       O151   2.255       .  S
In144       O152   2.248       .  S
In144       O153   2.235       .  S
In144       O156   2.231       .  S
C145        O151   1.263       .  A
C145        O153   1.259       .  A
C145       C1072   1.472       .  S
O146        C154   1.259       .  A
O147        C154   1.261       .  A
C148        O155   1.259       .  A
C148        O149   1.262       .  A
C148       C1002   1.474       .  S
C150        O152   1.261       .  A
C150        O156   1.261       .  A
C150       C1020   1.472       .  S
C154       C1182   1.475       .  S
In157       O159   2.235       .  S
In157       O160   2.265       .  S
In157       O168   2.247       .  S
In157       O162   2.253       .  S
In157       O164   2.250       .  S
In157       O165   2.247       .  S
In157       O166   2.246       .  S
In157       O169   2.237       .  S
C158        O164   1.261       .  A
C158        O166   1.261       .  A
C158        C964   1.476       .  S
O159        C167   1.257       .  A
O160        C167   1.261       .  A
C161        O168   1.261       .  A
C161        O162   1.260       .  A
C161        C946   1.476       .  S
C163        O165   1.263       .  A
C163        O169   1.259       .  A
C163       C1018   1.470       .  S
C167        C984   1.472       .  S
In170       O172   2.247       .  S
In170       O173   2.241       .  S
In170       O181   2.246       .  S
In170       O175   2.264       .  S
In170       O177   2.260       .  S
In170       O178   2.256       .  S
In170       O179   2.236       .  S
In170       O182   2.244       .  S
C171        O177   1.261       .  A
C171        O179   1.260       .  A
C171        C982   1.477       .  S
O172        C180   1.260       .  A
O173        C180   1.261       .  A
C174        O181   1.259       .  A
C174        O175   1.262       .  A
C174        C910   1.477       .  S
C176        O178   1.258       .  A
C176        O182   1.260       .  A
C176        C928   1.475       .  S
C180       C1056   1.472       .  S
In183       O185   2.234       .  S
In183       O186   2.262       .  S
In183       O194   2.256       .  S
In183       O188   2.243       .  S
In183       O190   2.259       .  S
In183       O191   2.251       .  S
In183       O192   2.240       .  S
In183       O195   2.256       .  S
C184        O190   1.261       .  A
C184        O192   1.260       .  A
C184        C894   1.476       .  S
O185        C193   1.259       .  A
O186        C193   1.264       .  A
C187        O194   1.263       .  A
C187        O188   1.261       .  A
C187        C874   1.476       .  S
C189        O191   1.258       .  A
C189        O195   1.260       .  A
C189        C966   1.475       .  S
C193       C1164   1.473       .  S
In196       O198   2.240       .  S
In196       O199   2.257       .  S
In196       O207   2.240       .  S
In196       O201   2.249       .  S
In196       O203   2.251       .  S
In196       O204   2.251       .  S
In196       O205   2.245       .  S
In196       O208   2.244       .  S
C197        O203   1.261       .  A
C197        O205   1.258       .  A
C197        C930   1.473       .  S
O198        C206   1.258       .  A
O199        C206   1.262       .  A
C200        O207   1.262       .  A
C200        O201   1.262       .  A
C200        C856   1.475       .  S
C202        O204   1.261       .  A
C202        O208   1.261       .  A
C202       C1110   1.476       .  S
C206        C892   1.473       .  S
In209       O211   2.243       .  S
In209       O212   2.262       .  S
In209       O220   2.257       .  S
In209       O214   2.252       .  S
In209       O216   2.253       .  S
In209       O217   2.249       .  S
In209       O218   2.245       .  S
In209       O221   2.242       .  S
C210        O216   1.261       .  A
C210        O218   1.261       .  A
C210        C820   1.476       .  S
O211        C219   1.258       .  A
O212        C219   1.262       .  A
C213        O220   1.260       .  A
C213        O214   1.261       .  A
C213       C1504   1.478       .  S
C215        O217   1.261       .  A
C215        O221   1.258       .  A
C215        C802   1.470       .  S
C219        C838   1.475       .  S
In222       O224   2.238       .  S
In222       O225   2.256       .  S
In222       O233   2.253       .  S
In222       O227   2.250       .  S
In222       O229   2.253       .  S
In222       O230   2.265       .  S
In222       O231   2.250       .  S
In222       O234   2.245       .  S
C223        O229   1.260       .  A
C223        O231   1.261       .  A
C223        C786   1.477       .  S
O224        C232   1.260       .  A
O225        C232   1.261       .  A
C226        O233   1.260       .  A
C226        O227   1.262       .  A
C226        C912   1.478       .  S
C228        O230   1.260       .  A
C228        O234   1.258       .  A
C228        C822   1.474   1_455  S
C232        C768   1.475       .  S
In235       O237   2.237       .  S
In235       O238   2.247       .  S
In235       O246   2.244       .  S
In235       O240   2.263       .  S
In235       O242   2.260       .  S
In235       O243   2.262       .  S
In235       O244   2.238       .  S
In235       O247   2.233       .  S
C236        O242   1.265       .  A
C236        O244   1.260       .  A
C236        C840   1.475       .  S
O237        C245   1.261       .  A
O238        C245   1.264       .  A
C239        O246   1.259       .  A
C239        O240   1.262       .  A
C239        C876   1.479       .  S
C241        O243   1.260       .  A
C241        O247   1.258       .  A
C241        C748   1.473       .  S
C245        C730   1.472       .  S
In248       O250   2.234       .  S
In248       O251   2.267       .  S
In248       O259   2.234       .  S
In248       O253   2.252       .  S
In248       O255   2.251       .  S
In248       O256   2.248       .  S
In248       O257   2.232       .  S
In248       O260   2.230       .  S
C249        O255   1.263       .  A
C249        O257   1.262       .  A
C249        C750   1.472       .  S
O250        C258   1.258       .  A
O251        C258   1.264       .  A
C252        O259   1.259       .  A
C252        O253   1.264       .  A
C252       C1434   1.473       .  S
C254        O256   1.266       .  A
C254        O260   1.260       .  A
C254        C712   1.471       .  S
C258        C784   1.475       .  S
In261       O263   2.238       .  S
In261       O264   2.252       .  S
In261       O272   2.250       .  S
In261       O266   2.263       .  S
In261       O268   2.280       .  S
In261       O269   2.239       .  S
In261       O270   2.237       .  S
In261       O273   2.245       .  S
C262        O268   1.265       .  A
C262        O270   1.258       .  A
C262        C696   1.479       .  S
O263        C271   1.259       .  A
O264        C271   1.261       .  A
C265        O272   1.259       .  A
C265        O266   1.261       .  A
C265       C1236   1.480       .  S
C267        O269   1.261       .  A
C267        O273   1.264       .  A
C267        C678   1.473       .  S
C271        C766   1.471       .  S
In274       O276   2.251       .  S
In274       O277   2.248       .  S
In274       O285   2.235   1_545  S
In274       O279   2.262       .  S
In274       O281   2.254       .  S
In274       O282   2.252   1_545  S
In274       O283   2.240       .  S
In274       O286   2.245   1_545  S
C275        O281   1.263       .  A
C275        O283   1.260       .  A
C275        C676   1.474       .  S
O276        C284   1.261       .  A
O277        C284   1.260       .  A
C278        O285   1.257   1_545  A
C278        O279   1.262       .  A
C278       C1000   1.472   1_545  S
C280        O282   1.261       .  A
C280        O286   1.261       .  A
C280        C714   1.476       .  S
C284        C660   1.475       .  S
In287       O289   2.259       .  S
In287       O290   2.248       .  S
In287       O298   2.271       .  S
In287       O292   2.246       .  S
In287       O294   2.253       .  S
In287       O295   2.245       .  S
In287       O296   2.251       .  S
In287       O299   2.250       .  S
C288        O294   1.259       .  A
C288        O296   1.260       .  A
C288        C640   1.476       .  S
O289        C297   1.263       .  A
O290        C297   1.260       .  A
C291        O298   1.261       .  A
C291        O292   1.257       .  A
C291       C1092   1.476       .  S
C293        O295   1.261       .  A
C293        O299   1.260       .  A
C293        C804   1.472       .  S
C297        C694   1.479       .  S
In300       O302   2.245       .  S
In300       O303   2.247       .  S
In300       O311   2.247       .  S
In300       O305   2.260       .  S
In300       O307   2.251       .  S
In300       O308   2.248       .  S
In300       O309   2.245       .  S
In300       O312   2.254       .  S
C301        O307   1.260       .  A
C301        O309   1.260       .  A
C301        C658   1.474       .  S
O302        C310   1.261       .  A
O303        C310   1.260       .  A
C304        O311   1.259       .  A
C304        O305   1.260       .  A
C304       C1218   1.477       .  S
C306        O308   1.259       .  A
C306        O312   1.260       .  A
C306        C642   1.473       .  S
C310        C732   1.473       .  S
In313       O315   2.246       .  S
In313       O316   2.243       .  S
In313       O324   2.254       .  S
In313       O318   2.252       .  S
In313       O320   2.254       .  S
In313       O321   2.255       .  S
In313       O322   2.248       .  S
In313       O325   2.251       .  S
C314        O320   1.260       .  A
C314        O322   1.259       .  A
C314        C604   1.474       .  S
O315        C323   1.261       .  A
O316        C323   1.263       .  A
C317        O324   1.261       .  A
C317        O318   1.260       .  A
C317       C1144   1.478       .  S
C319        O321   1.258       .  A
C319        O325   1.259       .  A
C319        C622   1.475       .  S
C323        C588   1.475       .  S
In326       O328   2.242       .  S
In326       O329   2.250       .  S
In326       O337   2.241       .  S
In326       O331   2.268       .  S
In326       O333   2.257       .  S
In326       O334   2.262       .  S
In326       O335   2.228       .  S
In326       O338   2.234       .  S
C327        O333   1.266       .  A
C327        O335   1.259       .  A
C327        C624   1.473       .  S
O328        C336   1.262       .  A
O329        C336   1.263       .  A
C330        O337   1.257       .  A
C330        O331   1.262       .  A
C330       C1254   1.475       .  S
C332        O334   1.264       .  A
C332        O338   1.259       .  A
C332        C550   1.473       .  S
C336        C568   1.475       .  S
In339       O341   2.245       .  S
In339       O342   2.252       .  S
In339       O350   2.245       .  S
In339       O344   2.263       .  S
In339       O346   2.269       .  S
In339       O347   2.250       .  S
In339       O348   2.235       .  S
In339       O351   2.243       .  S
C340        O346   1.264       .  A
C340        O348   1.258       .  A
C340        C534   1.477       .  S
O341        C349   1.261       .  A
O342        C349   1.260       .  A
C343        O350   1.260       .  A
C343        O344   1.262       .  A
C343       C1308   1.479       .  S
C345        O347   1.262       .  A
C345        O351   1.259       .  A
C345        C514   1.472       .  S
C349        C606   1.475       .  S
In352       O354   2.244       .  S
In352       O355   2.249       .  S
In352       O363   2.250       .  S
In352       O357   2.255       .  S
In352       O359   2.260       .  S
In352       O360   2.255       .  S
In352       O361   2.242       .  S
In352       O364   2.248       .  S
C353        O359   1.261       .  A
C353        O361   1.260       .  A
C353        C570   1.477       .  S
O354        C362   1.260       .  A
O355        C362   1.262       .  A
C356        O363   1.258       .  A
C356        O357   1.261       .  A
C356       C1038   1.475       .  S
C358        O360   1.259       .  A
C358        O364   1.260       .  A
C358        C532   1.476       .  S
C362        C498   1.474       .  S
In365       O367   2.256       .  S
In365       O368   2.252       .  S
In365       O376   2.250       .  S
In365       O370   2.248       .  S
In365       O372   2.270       .  S
In365       O373   2.245       .  S
In365       O374   2.242       .  S
In365       O377   2.243       .  S
C366        O372   1.262       .  A
C366        O374   1.257       .  A
C366        C460   1.477       .  S
O367        C375   1.261       .  A
O368        C375   1.259       .  A
C369        O376   1.262       .  A
C369        O370   1.261       .  A
C369        C948   1.476       .  S
C371        O373   1.262       .  A
C371        O377   1.259       .  A
C371        C516   1.472       .  S
C375        C478   1.477       .  S
In378       O380   2.233       .  S
In378       O381   2.260       .  S
In378       O389   2.238       .  S
In378       O383   2.251       .  S
In378       O385   2.256       .  S
In378       O386   2.259       .  S
In378       O387   2.234       .  S
In378       O390   2.235       .  S
C379        O385   1.264       .  A
C379        O387   1.259       .  A
C379        C480   1.473       .  S
O380        C388   1.260       .  A
O381        C388   1.264       .  A
C382        O389   1.260       .  A
C382        O383   1.263       .  A
C382       C1360   1.472       .  S
C384        O386   1.265       .  A
C384        O390   1.260       .  A
C384        C444   1.476       .  S
C388        C496   1.478       .  S
In391       O393   2.240       .  S
In391       O394   2.258   1_545  S
In391       O402   2.263       .  S
In391       O396   2.245       .  S
In391       O398   2.253       .  S
In391       O399   2.254       .  S
In391       O400   2.242       .  S
In391       O403   2.258       .  S
C392        O398   1.260       .  A
C392        O400   1.260       .  A
C392        C426   1.475       .  S
O393        C401   1.260   1_545  A
O394        C401   1.261       .  A
C395        O402   1.262       .  A
C395        O396   1.258       .  A
C395       C1398   1.476   1_545  S
C397        O399   1.259       .  A
C397        O403   1.261       .  A
C397        C462   1.479       .  S
C401        C586   1.477       .  S
In404       O406   2.262       .  S
In404       O407   2.250       .  S
In404       O415   2.240       .  S
In404       O409   2.251       .  S
In404       O411   2.243       .  S
In404       O412   2.267       .  S
In404       O413   2.255       .  S
In404       O416   2.238       .  S
C405        O411   1.260       .  A
C405        O413   1.263       .  A
C405        C442   1.476       .  S
O406        C414   1.257       .  A
O407        C414   1.258       .  A
C408        O415   1.260       .  A
C408        O409   1.260       .  A
C408        C858   1.473       .  S
C410        O412   1.261       .  A
C410        O416   1.259       .  A
C410        C552   1.477       .  S
C414        C424   1.475       .  S
C417        C425   1.490       .  S
C417        C418   1.405       .  A
C417        C422   1.409       .  A
C418        C419   1.398       .  A
C418        H427   1.084       .  S
C419        C420   1.406       .  A
C419        H428   1.081       .  S
C420        C423   1.485       .  S
C420        C421   1.403       .  A
C421        C422   1.398       .  A
C421        H429   1.084       .  S
C422        H430   1.079       .  S
C423        H431   1.087       .  S
C423        C424   1.345       .  D
C424        H432   1.085       .  S
C425        H433   1.087       .  S
C425        C426   1.347       .  D
C426        H434   1.083       .  S
C435        C443   1.490       .  S
C435        C436   1.403       .  A
C435        C440   1.407       .  A
C436        C437   1.400       .  A
C436        H445   1.084       .  S
C437        C438   1.411       .  A
C437        H446   1.079       .  S
C438        C441   1.494       .  S
C438        C439   1.405       .  A
C439        C440   1.399       .  A
C439        H447   1.084       .  S
C440        H448   1.081       .  S
C441        H449   1.088       .  S
C441        C442   1.347       .  D
C442        H450   1.082       .  S
C443        H451   1.087       .  S
C443        C444   1.345       .  D
C444        H452   1.084       .  S
C453        C461   1.492       .  S
C453        C454   1.403       .  A
C453        C458   1.409       .  A
C454        C455   1.399       .  A
C454        H463   1.084       .  S
C455        C456   1.410       .  A
C455        H464   1.079       .  S
C456        C459   1.496       .  S
C456        C457   1.405       .  A
C457        C458   1.401       .  A
C457        H465   1.083       .  S
C458        H466   1.081       .  S
C459        H467   1.087       .  S
C459        C460   1.347       .  D
C460        H468   1.082       .  S
C461        H469   1.087       .  S
C461        C462   1.347       .  D
C462        H470   1.084       .  S
C471        C479   1.489       .  S
C471        C472   1.404       .  A
C471        C476   1.408       .  A
C472        C473   1.401       .  A
C472        H481   1.083       .  S
C473        C474   1.410       .  A
C473        H482   1.081       .  S
C474        C477   1.491       .  S
C474        C475   1.403       .  A
C475        C476   1.397       .  A
C475        H483   1.083       .  S
C476        H484   1.081       .  S
C477        H485   1.087       .  S
C477        C478   1.346       .  D
C478        H486   1.084       .  S
C479        H487   1.087       .  S
C479        C480   1.345       .  D
C480        H488   1.084       .  S
C489        C497   1.487       .  S
C489        C490   1.404       .  A
C489        C494   1.406       .  A
C490        C491   1.401       .  A
C490        H499   1.084       .  S
C491        C492   1.408       .  A
C491        H500   1.080       .  S
C492        C495   1.488       .  S
C492        C493   1.404       .  A
C493        C494   1.397       .  A
C493        H501   1.084       .  S
C494        H502   1.082       .  S
C495        H503   1.088       .  S
C495        C496   1.348       .  D
C496        H504   1.084       .  S
C497        H505   1.087       .  S
C497        C498   1.346       .  D
C498        H506   1.085       .  S
C507        C515   1.481       .  S
C507        C508   1.401       .  A
C507        C512   1.406       .  A
C508        C509   1.397       .  A
C508        H517   1.084       .  S
C509        C510   1.407       .  A
C509        H518   1.082       .  S
C510        C513   1.484       .  S
C510        C511   1.404       .  A
C511        C512   1.399       .  A
C511        H519   1.084       .  S
C512        H520   1.082       .  S
C513        H521   1.087       .  S
C513        C514   1.344   1_545  D
C514        H522   1.085       .  S
C515        H523   1.087       .  S
C515        C516   1.342       .  D
C516        H524   1.086       .  S
C525        C533   1.496       .  S
C525        C526   1.405       .  A
C525        C530   1.411       .  A
C526        C527   1.400       .  A
C526        H535   1.083       .  S
C527        C528   1.408       .  A
C527        H536   1.081       .  S
C528        C531   1.490       .  S
C528        C529   1.403       .  A
C529        C530   1.398       .  A
C529        H537   1.083       .  S
C530        H538   1.079       .  S
C531        H539   1.087       .  S
C531        C532   1.346       .  D
C532        H540   1.084       .  S
C533        H541   1.087       .  S
C533        C534   1.346       .  D
C534        H542   1.082       .  S
C543        C551   1.485       .  S
C543        C544   1.403       .  A
C543        C548   1.408       .  A
C544        C545   1.395       .  A
C544        H553   1.084       .  S
C545        C546   1.406       .  A
C545        H554   1.082       .  S
C546        C549   1.485       .  S
C546        C547   1.404       .  A
C547        C548   1.402       .  A
C547        H555   1.083       .  S
C548        H556   1.082       .  S
C549        H557   1.087       .  S
C549        C550   1.344       .  D
C550        H558   1.086       .  S
C551        H559   1.087       .  S
C551        C552   1.346       .  D
C552        H560   1.085       .  S
C561        C569   1.486       .  S
C561        C562   1.404       .  A
C561        C566   1.407       .  A
C562        C563   1.398       .  A
C562        H571   1.083       .  S
C563        C564   1.406       .  A
C563        H572   1.082       .  S
C564        C567   1.486   1_455  S
C564        C565   1.404       .  A
C565        C566   1.401       .  A
C565        H573   1.084       .  S
C566        H574   1.082       .  S
C567        H575   1.087       .  S
C567        C568   1.346       .  D
C568        H576   1.085       .  S
C569        H577   1.087       .  S
C569        C570   1.346       .  D
C570        H578   1.085       .  S
C579        C587   1.490       .  S
C579        C580   1.404       .  A
C579        C584   1.407       .  A
C580        C581   1.400       .  A
C580        H589   1.085       .  S
C581        C582   1.408       .  A
C581        H590   1.079       .  S
C582        C585   1.490       .  S
C582        C583   1.404       .  A
C583        C584   1.398       .  A
C583        H591   1.084       .  S
C584        H592   1.080       .  S
C585        H593   1.088       .  S
C585        C586   1.347       .  D
C586        H594   1.083       .  S
C587        H595   1.087       .  S
C587        C588   1.347       .  D
C588        H596   1.083       .  S
C597        C605   1.485   1_655  S
C597        C598   1.403       .  A
C597        C602   1.407       .  A
C598        C599   1.397       .  A
C598        H607   1.084       .  S
C599        C600   1.406       .  A
C599        H608   1.082       .  S
C600        C603   1.485       .  S
C600        C601   1.404       .  A
C601        C602   1.400       .  A
C601        H609   1.083       .  S
C602        H610   1.082       .  S
C603        H611   1.087       .  S
C603        C604   1.346       .  D
C604        H612   1.085       .  S
C605        H613   1.087       .  S
C605        C606   1.345       .  D
C606        H614   1.085       .  S
C615        C623   1.491       .  S
C615        C616   1.404       .  A
C615        C620   1.409       .  A
C616        C617   1.400       .  A
C616        H625   1.083       .  S
C617        C618   1.409       .  A
C617        H626   1.081       .  S
C618        C621   1.488       .  S
C618        C619   1.402       .  A
C619        C620   1.397       .  A
C619        H627   1.083       .  S
C620        H628   1.080       .  S
C621        H629   1.087       .  S
C621        C622   1.345       .  D
C622        H630   1.084       .  S
C623        H631   1.087       .  S
C623        C624   1.344       .  D
C624        H632   1.083       .  S
C633        C641   1.485       .  S
C633        C634   1.403       .  A
C633        C638   1.406       .  A
C634        C635   1.401       .  A
C634        H643   1.084       .  S
C635        C636   1.410       .  A
C635        H644   1.080       .  S
C636        C639   1.489       .  S
C636        C637   1.404       .  A
C637        C638   1.397       .  A
C637        H645   1.084       .  S
C638        H646   1.082       .  S
C639        H647   1.088       .  S
C639        C640   1.346       .  D
C640        H648   1.084       .  S
C641        H649   1.087       .  S
C641        C642   1.346       .  D
C642        H650   1.085       .  S
C651        C659   1.486       .  S
C651        C652   1.403       .  A
C651        C656   1.407       .  A
C652        C653   1.398       .  A
C652        H661   1.083       .  S
C653        C654   1.406       .  A
C653        H662   1.082       .  S
C654        C657   1.484       .  S
C654        C655   1.403       .  A
C655        C656   1.399       .  A
C655        H663   1.083       .  S
C656        H664   1.082       .  S
C657        H665   1.087       .  S
C657        C658   1.345       .  D
C658        H666   1.086       .  S
C659        H667   1.087       .  S
C659        C660   1.345       .  D
C660        H668   1.085       .  S
C669        C677   1.485       .  S
C669        C670   1.402       .  A
C669        C674   1.408       .  A
C670        C671   1.398       .  A
C670        H679   1.083       .  S
C671        C672   1.409       .  A
C671        H680   1.081       .  S
C672        C675   1.489       .  S
C672        C673   1.404       .  A
C673        C674   1.399       .  A
C673        H681   1.083       .  S
C674        H682   1.081       .  S
C675        H683   1.087       .  S
C675        C676   1.345       .  D
C676        H684   1.084       .  S
C677        H685   1.087       .  S
C677        C678   1.344       .  D
C678        H686   1.085       .  S
C687        C695   1.495       .  S
C687        C688   1.404       .  A
C687        C692   1.409       .  A
C688        C689   1.402       .  A
C688        H697   1.083       .  S
C689        C690   1.409       .  A
C689        H698   1.081       .  S
C690        C693   1.493       .  S
C690        C691   1.403       .  A
C691        C692   1.400       .  A
C691        H699   1.083       .  S
C692        H700   1.081       .  S
C693        H701   1.087       .  S
C693        C694   1.347       .  D
C694        H702   1.084       .  S
C695        H703   1.087       .  S
C695        C696   1.347       .  D
C696        H704   1.084       .  S
C705        C713   1.485       .  S
C705        C706   1.403       .  A
C705        C710   1.407       .  A
C706        C707   1.398       .  A
C706        H715   1.083       .  S
C707        C708   1.407       .  A
C707        H716   1.082       .  S
C708        C711   1.486       .  S
C708        C709   1.404       .  A
C709        C710   1.400       .  A
C709        H717   1.083       .  S
C710        H718   1.082       .  S
C711        H719   1.087       .  S
C711        C712   1.344       .  D
C712        H720   1.085       .  S
C713        H721   1.087       .  S
C713        C714   1.345       .  D
C714        H722   1.085       .  S
C723        C731   1.484       .  S
C723        C724   1.403       .  A
C723        C728   1.408       .  A
C724        C725   1.397   1_545  A
C724        H733   1.083       .  S
C725        C726   1.407   1_565  A
C725        H734   1.082       .  S
C726        C729   1.484   1_545  S
C726        C727   1.402       .  A
C727        C728   1.399       .  A
C727        H735   1.083       .  S
C728        H736   1.082       .  S
C729        H737   1.087       .  S
C729        C730   1.344       .  D
C730        H738   1.085       .  S
C731        H739   1.087       .  S
C731        C732   1.344       .  D
C732        H740   1.085       .  S
C741        C749   1.481       .  S
C741        C742   1.404       .  A
C741        C746   1.406       .  A
C742        C743   1.399       .  A
C742        H751   1.084       .  S
C743        C744   1.405   1_455  A
C743        H752   1.082       .  S
C744        C747   1.479       .  S
C744        C745   1.402       .  A
C745        C746   1.397   1_655  A
C745        H753   1.084       .  S
C746        H754   1.082       .  S
C747        H755   1.088       .  S
C747        C748   1.344       .  D
C748        H756   1.086       .  S
C749        H757   1.087       .  S
C749        C750   1.345       .  D
C750        H758   1.085       .  S
C759        C767   1.485       .  S
C759        C760   1.402       .  A
C759        C764   1.408       .  A
C760        C761   1.395       .  A
C760        H769   1.084       .  S
C761        C762   1.407       .  A
C761        H770   1.081       .  S
C762        C765   1.487       .  S
C762        C763   1.404       .  A
C763        C764   1.400       .  A
C763        H771   1.084       .  S
C764        H772   1.081       .  S
C765        H773   1.087       .  S
C765        C766   1.345       .  D
C766        H774   1.084       .  S
C767        H775   1.088       .  S
C767        C768   1.345       .  D
C768        H776   1.085       .  S
C777        C785   1.490       .  S
C777        C778   1.404       .  A
C777        C782   1.409       .  A
C778        C779   1.398       .  A
C778        H787   1.084       .  S
C779        C780   1.408       .  A
C779        H788   1.082       .  S
C780        C783   1.490       .  S
C780        C781   1.404       .  A
C781        C782   1.401       .  A
C781        H789   1.083       .  S
C782        H790   1.080       .  S
C783        H791   1.087       .  S
C783        C784   1.345       .  D
C784        H792   1.085       .  S
C785        H793   1.087       .  S
C785        C786   1.347       .  D
C786        H794   1.083       .  S
C795        C803   1.480       .  S
C795        C796   1.402       .  A
C795        C800   1.406       .  A
C796        C797   1.397       .  A
C796        H805   1.084       .  S
C797        C798   1.408       .  A
C797        H806   1.082       .  S
C798        C801   1.483       .  S
C798        C799   1.403       .  A
C799        C800   1.398       .  A
C799        H807   1.084       .  S
C800        H808   1.082       .  S
C801        H809   1.088       .  S
C801        C802   1.343       .  D
C802        H810   1.085       .  S
C803        H811   1.087       .  S
C803        C804   1.343       .  D
C804        H812   1.086       .  S
C813        C821   1.487       .  S
C813        C814   1.403       .  A
C813        C818   1.406       .  A
C814        C815   1.401       .  A
C814        H823   1.083       .  S
C815        C816   1.410       .  A
C815        H824   1.080       .  S
C816        C819   1.490       .  S
C816        C817   1.404       .  A
C817        C818   1.398       .  A
C817        H825   1.083       .  S
C818        H826   1.082       .  S
C819        H827   1.087       .  S
C819        C820   1.347       .  D
C820        H828   1.083       .  S
C821        H829   1.087       .  S
C821        C822   1.345       .  D
C822        H830   1.085       .  S
C831        C839   1.486       .  S
C831        C832   1.403       .  A
C831        C836   1.407       .  A
C832        C833   1.399       .  A
C832        H841   1.083       .  S
C833        C834   1.407       .  A
C833        H842   1.083       .  S
C834        C837   1.485       .  S
C834        C835   1.403       .  A
C835        C836   1.400       .  A
C835        H843   1.083       .  S
C836        H844   1.082       .  S
C837        H845   1.087       .  S
C837        C838   1.344       .  D
C838        H846   1.086       .  S
C839        H847   1.087       .  S
C839        C840   1.344       .  D
C840        H848   1.086       .  S
C849        C857   1.487       .  S
C849        C850   1.404       .  A
C849        C854   1.407       .  A
C850        C851   1.398       .  A
C850        H859   1.084       .  S
C851        C852   1.407       .  A
C851        H860   1.080       .  S
C852        C855   1.488       .  S
C852        C853   1.404       .  A
C853        C854   1.398       .  A
C853        H861   1.084       .  S
C854        H862   1.080       .  S
C855        H863   1.087       .  S
C855        C856   1.346       .  D
C856        H864   1.084       .  S
C857        H865   1.087       .  S
C857        C858   1.346       .  D
C858        H866   1.083       .  S
C867        C875   1.492       .  S
C867        C868   1.405       .  A
C867        C872   1.409       .  A
C868        C869   1.398   1_565  A
C868        H877   1.084   1_565  S
C869        C870   1.407   1_545  A
C869        H878   1.081       .  S
C870        C873   1.491       .  S
C870        C871   1.405       .  A
C871        C872   1.402       .  A
C871        H879   1.083       .  S
C872        H880   1.081       .  S
C873        H881   1.086       .  S
C873        C874   1.348   1_565  D
C874        H882   1.083       .  S
C875        H883   1.088       .  S
C875        C876   1.349       .  D
C876        H884   1.084       .  S
C885        C893   1.488       .  S
C885        C886   1.403       .  A
C885        C890   1.408       .  A
C886        C887   1.397       .  A
C886        H895   1.084       .  S
C887        C888   1.408       .  A
C887        H896   1.080       .  S
C888        C891   1.490       .  S
C888        C889   1.404       .  A
C889        C890   1.400       .  A
C889        H897   1.084       .  S
C890        H898   1.080       .  S
C891        H899   1.087       .  S
C891        C892   1.346       .  D
C892        H900   1.084       .  S
C893        H901   1.088       .  S
C893        C894   1.347       .  D
C894        H902   1.084       .  S
C903        C911   1.489       .  S
C903        C904   1.403       .  A
C903        C908   1.408       .  A
C904        C905   1.398       .  A
C904        H913   1.084       .  S
C905        C906   1.408       .  A
C905        H914   1.081       .  S
C906        C909   1.491       .  S
C906        C907   1.405       .  A
C907        C908   1.402       .  A
C907        H915   1.084       .  S
C908        H916   1.081       .  S
C909        H917   1.088       .  S
C909        C910   1.346       .  D
C910        H918   1.085       .  S
C911        H919   1.088       .  S
C911        C912   1.346       .  D
C912        H920   1.085       .  S
C921        C929   1.489       .  S
C921        C922   1.405       .  A
C921        C926   1.408       .  A
C922        C923   1.400       .  A
C922        H931   1.083       .  S
C923        C924   1.408       .  A
C923        H932   1.081       .  S
C924        C927   1.486       .  S
C924        C925   1.403       .  A
C925        C926   1.396       .  A
C925        H933   1.083       .  S
C926        H934   1.080       .  S
C927        H935   1.087       .  S
C927        C928   1.345   1_655  D
C928        H936   1.084       .  S
C929        H937   1.087       .  S
C929        C930   1.346       .  D
C930        H938   1.083       .  S
C939        C947   1.492       .  S
C939        C940   1.405       .  A
C939        C944   1.408       .  A
C940        C941   1.400       .  A
C940        H949   1.083       .  S
C941        C942   1.408       .  A
C941        H950   1.081       .  S
C942        C945   1.489       .  S
C942        C943   1.404       .  A
C943        C944   1.398       .  A
C943        H951   1.083       .  S
C944        H952   1.080       .  S
C945        H953   1.087       .  S
C945        C946   1.347       .  D
C946        H954   1.084       .  S
C947        H955   1.087       .  S
C947        C948   1.348       .  D
C948        H956   1.083       .  S
C957        C965   1.490       .  S
C957        C958   1.404   1_655  A
C957        C962   1.407   1_655  A
C958        C959   1.399       .  A
C958        H967   1.084   1_455  S
C959        C960   1.409       .  A
C959        H968   1.080       .  S
C960        C963   1.491       .  S
C960        C961   1.405       .  A
C961        C962   1.399       .  A
C961        H969   1.084       .  S
C962        H970   1.081       .  S
C963        H971   1.087       .  S
C963        C964   1.347       .  D
C964        H972   1.083       .  S
C965        H973   1.087       .  S
C965        C966   1.346       .  D
C966        H974   1.084       .  S
C975        C983   1.489       .  S
C975        C976   1.405       .  A
C975        C980   1.407       .  A
C976        C977   1.402       .  A
C976        H985   1.083       .  S
C977        C978   1.409       .  A
C977        H986   1.081       .  S
C978        C981   1.487       .  S
C978        C979   1.403       .  A
C979        C980   1.395       .  A
C979        H987   1.083       .  S
C980        H988   1.082       .  S
C981        H989   1.087       .  S
C981        C982   1.346       .  D
C982        H990   1.084       .  S
C983        H991   1.087       .  S
C983        C984   1.345       .  D
C984        H992   1.084       .  S
C993       C1001   1.487       .  S
C993        C994   1.403       .  A
C993        C998   1.409       .  A
C994        C995   1.398       .  A
C994       H1003   1.084       .  S
C995        C996   1.407       .  A
C995       H1004   1.082       .  S
C996        C999   1.484   1_565  S
C996        C997   1.401   1_565  A
C997        C998   1.399   1_545  A
C997       H1005   1.084       .  S
C998       H1006   1.081   1_565  S
C999       H1007   1.088       .  S
C999       C1000   1.343   1_545  D
C1000      H1008   1.087       .  S
C1001      H1009   1.087       .  S
C1001      C1002   1.345       .  D
C1002      H1010   1.085       .  S
C1011      C1019   1.484   1_545  S
C1011      C1012   1.403       .  A
C1011      C1016   1.408       .  A
C1012      C1013   1.395       .  A
C1012      H1021   1.084   1_545  S
C1013      C1014   1.407       .  A
C1013      H1022   1.081       .  S
C1014      C1017   1.484       .  S
C1014      C1015   1.403       .  A
C1015      C1016   1.398       .  A
C1015      H1023   1.084       .  S
C1016      H1024   1.080       .  S
C1017      H1025   1.088       .  S
C1017      C1018   1.343       .  D
C1018      H1026   1.085       .  S
C1019      H1027   1.088       .  S
C1019      C1020   1.345       .  D
C1020      H1028   1.084   1_565  S
C1029      C1037   1.484       .  S
C1029      C1030   1.402       .  A
C1029      C1034   1.407       .  A
C1030      C1031   1.398       .  A
C1030      H1039   1.083       .  S
C1031      C1032   1.407       .  A
C1031      H1040   1.082       .  S
C1032      C1035   1.487       .  S
C1032      C1033   1.404       .  A
C1033      C1034   1.400       .  A
C1033      H1041   1.083       .  S
C1034      H1042   1.082       .  S
C1035      H1043   1.087       .  S
C1035      C1036   1.345       .  D
C1036      H1044   1.085       .  S
C1037      H1045   1.087       .  S
C1037      C1038   1.344       .  D
C1038      H1046   1.086       .  S
C1047      C1055   1.485       .  S
C1047      C1048   1.404       .  A
C1047      C1052   1.407       .  A
C1048      C1049   1.398       .  A
C1048      H1057   1.084       .  S
C1049      C1050   1.407       .  A
C1049      H1058   1.081       .  S
C1050      C1053   1.484       .  S
C1050      C1051   1.402       .  A
C1051      C1052   1.396       .  A
C1051      H1059   1.084       .  S
C1052      H1060   1.081       .  S
C1053      H1061   1.087       .  S
C1053      C1054   1.343       .  D
C1054      H1062   1.085       .  S
C1055      H1063   1.087       .  S
C1055      C1056   1.345       .  D
C1056      H1064   1.085       .  S
C1065      C1073   1.489       .  S
C1065      C1066   1.403       .  A
C1065      C1070   1.409       .  A
C1066      C1067   1.396       .  A
C1066      H1075   1.084       .  S
C1067      C1068   1.406       .  A
C1067      H1076   1.082       .  S
C1068      C1071   1.486       .  S
C1068      C1069   1.403       .  A
C1069      C1070   1.400       .  A
C1069      H1077   1.084       .  S
C1070      H1078   1.080       .  S
C1071      H1079   1.087       .  S
C1071      C1072   1.345       .  D
C1072      H1080   1.085       .  S
C1073      H1081   1.087       .  S
C1073      C1074   1.345       .  D
C1074      H1082   1.083       .  S
C1083      C1091   1.487       .  S
C1083      C1084   1.403       .  A
C1083      C1088   1.407       .  A
C1084      C1085   1.402       .  A
C1084      H1093   1.084       .  S
C1085      C1086   1.408       .  A
C1085      H1094   1.082       .  S
C1086      C1089   1.488       .  S
C1086      C1087   1.403       .  A
C1087      C1088   1.399       .  A
C1087      H1095   1.084       .  S
C1088      H1096   1.082       .  S
C1089      H1097   1.087       .  S
C1089      C1090   1.345       .  D
C1090      H1098   1.086       .  S
C1091      H1099   1.087       .  S
C1091      C1092   1.344       .  D
C1092      H1100   1.086       .  S
C1101      C1109   1.489       .  S
C1101      C1102   1.404       .  A
C1101      C1106   1.409       .  A
C1102      C1103   1.398       .  A
C1102      H1111   1.084       .  S
C1103      C1104   1.407       .  A
C1103      H1112   1.082       .  S
C1104      C1107   1.488       .  S
C1104      C1105   1.403       .  A
C1105      C1106   1.401       .  A
C1105      H1113   1.083       .  S
C1106      H1114   1.081       .  S
C1107      H1115   1.087       .  S
C1107      C1108   1.344       .  D
C1108      H1116   1.085       .  S
C1109      H1117   1.087       .  S
C1109      C1110   1.347       .  D
C1110      H1118   1.083       .  S
C1119      C1127   1.487       .  S
C1119      C1120   1.403       .  A
C1119      C1124   1.406       .  A
C1120      C1121   1.401       .  A
C1120      H1129   1.084       .  S
C1121      C1122   1.408       .  A
C1121      H1130   1.081       .  S
C1122      C1125   1.489       .  S
C1122      C1123   1.404       .  A
C1123      C1124   1.399       .  A
C1123      H1131   1.084       .  S
C1124      H1132   1.082       .  S
C1125      H1133   1.088       .  S
C1125      C1126   1.346       .  D
C1126      H1134   1.085       .  S
C1127      H1135   1.087       .  S
C1127      C1128   1.345       .  D
C1128      H1136   1.086       .  S
C1137      C1145   1.490       .  S
C1137      C1138   1.405       .  A
C1137      C1142   1.407       .  A
C1138      C1139   1.402       .  A
C1138      H1147   1.083       .  S
C1139      C1140   1.409       .  A
C1139      H1148   1.081       .  S
C1140      C1143   1.491       .  S
C1140      C1141   1.404       .  A
C1141      C1142   1.398       .  A
C1141      H1149   1.083       .  S
C1142      H1150   1.081       .  S
C1143      H1151   1.087       .  S
C1143      C1144   1.346       .  D
C1144      H1152   1.084       .  S
C1145      H1153   1.087       .  S
C1145      C1146   1.347       .  D
C1146      H1154   1.084       .  S
C1155      C1163   1.489       .  S
C1155      C1156   1.403       .  A
C1155      C1160   1.408       .  A
C1156      C1157   1.400       .  A
C1156      H1165   1.083       .  S
C1157      C1158   1.409       .  A
C1157      H1166   1.081       .  S
C1158      C1161   1.487       .  S
C1158      C1159   1.402       .  A
C1159      C1160   1.397       .  A
C1159      H1167   1.083       .  S
C1160      H1168   1.081       .  S
C1161      H1169   1.087       .  S
C1161      C1162   1.344       .  D
C1162      H1170   1.084       .  S
C1163      H1171   1.087       .  S
C1163      C1164   1.344   1_565  D
C1164      H1172   1.084       .  S
C1173      C1181   1.492       .  S
C1173      C1174   1.404       .  A
C1173      C1178   1.409       .  A
C1174      C1175   1.399       .  A
C1174      H1183   1.084       .  S
C1175      C1176   1.409       .  A
C1175      H1184   1.079       .  S
C1176      C1179   1.492       .  S
C1176      C1177   1.405       .  A
C1177      C1178   1.399       .  A
C1177      H1185   1.084       .  S
C1178      H1186   1.080       .  S
C1179      H1187   1.087       .  S
C1179      C1180   1.347       .  D
C1180      H1188   1.082       .  S
C1181      H1189   1.087       .  S
C1181      C1182   1.347       .  D
C1182      H1190   1.082       .  S
C1191      C1199   1.490       .  S
C1191      C1192   1.405       .  A
C1191      C1196   1.409       .  A
C1192      C1193   1.399       .  A
C1192      H1201   1.084       .  S
C1193      C1194   1.407       .  A
C1193      H1202   1.081       .  S
C1194      C1197   1.484       .  S
C1194      C1195   1.401       .  A
C1195      C1196   1.396       .  A
C1195      H1203   1.084       .  S
C1196      H1204   1.079       .  S
C1197      H1205   1.088       .  S
C1197      C1198   1.345       .  D
C1198      H1206   1.085       .  S
C1199      H1207   1.088       .  S
C1199      C1200   1.346       .  D
C1200      H1208   1.082       .  S
C1209      C1217   1.488       .  S
C1209      C1210   1.404       .  A
C1209      C1214   1.408       .  A
C1210      C1211   1.398   1_554  A
C1210      H1219   1.084       .  S
C1211      C1212   1.407       .  A
C1211      H1220   1.082       .  S
C1212      C1215   1.486       .  S
C1212      C1213   1.403       .  A
C1213      C1214   1.400   1_556  A
C1213      H1221   1.084       .  S
C1214      H1222   1.081       .  S
C1215      H1223   1.087       .  S
C1215      C1216   1.345       .  D
C1216      H1224   1.085       .  S
C1217      H1225   1.088       .  S
C1217      C1218   1.347       .  D
C1218      H1226   1.085       .  S
C1227      C1235   1.489       .  S
C1227      C1228   1.404       .  A
C1227      C1232   1.407       .  A
C1228      C1229   1.401       .  A
C1228      H1237   1.084       .  S
C1229      C1230   1.408   1_554  A
C1229      H1238   1.081   1_554  S
C1230      C1233   1.492       .  S
C1230      C1231   1.405   1_556  A
C1231      C1232   1.401       .  A
C1231      H1239   1.084   1_554  S
C1232      H1240   1.082       .  S
C1233      H1241   1.087       .  S
C1233      C1234   1.348       .  D
C1234      H1242   1.085       .  S
C1235      H1243   1.087       .  S
C1235      C1236   1.348       .  D
C1236      H1244   1.085       .  S
C1245      C1253   1.487       .  S
C1245      C1246   1.402       .  A
C1245      C1250   1.408       .  A
C1246      C1247   1.398       .  A
C1246      H1255   1.084       .  S
C1247      C1248   1.408       .  A
C1247      H1256   1.082       .  S
C1248      C1251   1.486       .  S
C1248      C1249   1.403       .  A
C1249      C1250   1.401       .  A
C1249      H1257   1.084       .  S
C1250      H1258   1.082       .  S
C1251      H1259   1.087       .  S
C1251      C1252   1.344       .  D
C1252      H1260   1.086       .  S
C1253      H1261   1.088       .  S
C1253      C1254   1.344       .  D
C1254      H1262   1.086       .  S
C1263      C1271   1.494       .  S
C1263      C1264   1.406       .  A
C1263      C1268   1.410       .  A
C1264      C1265   1.399       .  A
C1264      H1273   1.084       .  S
C1265      C1266   1.407       .  A
C1265      H1274   1.081       .  S
C1266      C1269   1.491   1_455  S
C1266      C1267   1.404       .  A
C1267      C1268   1.401       .  A
C1267      H1275   1.083       .  S
C1268      H1276   1.079       .  S
C1269      H1277   1.087       .  S
C1269      C1270   1.347       .  D
C1270      H1278   1.084       .  S
C1271      H1279   1.087       .  S
C1271      C1272   1.349       .  D
C1272      H1280   1.082       .  S
C1281      C1289   1.487       .  S
C1281      C1282   1.404       .  A
C1281      C1286   1.406       .  A
C1282      C1283   1.400       .  A
C1282      H1291   1.084       .  S
C1283      C1284   1.409       .  A
C1283      H1292   1.080       .  S
C1284      C1287   1.488       .  S
C1284      C1285   1.404       .  A
C1285      C1286   1.396       .  A
C1285      H1293   1.084       .  S
C1286      H1294   1.081       .  S
C1287      H1295   1.087       .  S
C1287      C1288   1.346       .  D
C1288      H1296   1.083       .  S
C1289      H1297   1.087       .  S
C1289      C1290   1.345       .  D
C1290      H1298   1.084       .  S
C1299      C1307   1.489       .  S
C1299      C1300   1.404       .  A
C1299      C1304   1.407       .  A
C1300      C1301   1.399       .  A
C1300      H1309   1.084       .  S
C1301      C1302   1.408       .  A
C1301      H1310   1.081   1_565  S
C1302      C1305   1.490   1_565  S
C1302      C1303   1.404       .  A
C1303      C1304   1.401       .  A
C1303      H1311   1.084       .  S
C1304      H1312   1.081       .  S
C1305      H1313   1.088       .  S
C1305      C1306   1.345       .  D
C1306      H1314   1.084       .  S
C1307      H1315   1.087       .  S
C1307      C1308   1.348       .  D
C1308      H1316   1.085       .  S
C1317      C1325   1.480       .  S
C1317      C1318   1.401       .  A
C1317      C1322   1.405       .  A
C1318      C1319   1.398       .  A
C1318      H1327   1.083       .  S
C1319      C1320   1.409       .  A
C1319      H1328   1.080       .  S
C1320      C1323   1.486       .  S
C1320      C1321   1.404       .  A
C1321      C1322   1.396       .  A
C1321      H1329   1.083       .  S
C1322      H1330   1.082       .  S
C1323      H1331   1.087       .  S
C1323      C1324   1.345       .  D
C1324      H1332   1.083       .  S
C1325      H1333   1.087       .  S
C1325      C1326   1.342       .  D
C1326      H1334   1.086       .  S
C1335      C1343   1.487       .  S
C1335      C1336   1.401       .  A
C1335      C1340   1.408       .  A
C1336      C1337   1.398       .  A
C1336      H1345   1.083       .  S
C1337      C1338   1.410       .  A
C1337      H1346   1.080       .  S
C1338      C1341   1.493       .  S
C1338      C1339   1.405       .  A
C1339      C1340   1.401       .  A
C1339      H1347   1.083       .  S
C1340      H1348   1.082       .  S
C1341      H1349   1.087       .  S
C1341      C1342   1.346       .  D
C1342      H1350   1.083       .  S
C1343      H1351   1.087       .  S
C1343      C1344   1.345       .  D
C1344      H1352   1.085       .  S
C1353      C1361   1.480       .  S
C1353      C1354   1.401       .  A
C1353      C1358   1.406       .  A
C1354      C1355   1.398       .  A
C1354      H1363   1.084       .  S
C1355      C1356   1.407       .  A
C1355      H1364   1.082       .  S
C1356      C1359   1.484       .  S
C1356      C1357   1.403       .  A
C1357      C1358   1.399       .  A
C1357      H1365   1.084       .  S
C1358      H1366   1.082       .  S
C1359      H1367   1.087       .  S
C1359      C1360   1.344       .  D
C1360      H1368   1.086       .  S
C1361      H1369   1.087       .  S
C1361      C1362   1.343       .  D
C1362      H1370   1.086       .  S
C1371      C1379   1.482       .  S
C1371      C1372   1.401       .  A
C1371      C1376   1.408       .  A
C1372      C1373   1.396       .  A
C1372      H1381   1.084       .  S
C1373      C1374   1.406       .  A
C1373      H1382   1.082       .  S
C1374      C1377   1.481       .  S
C1374      C1375   1.402       .  A
C1375      C1376   1.399       .  A
C1375      H1383   1.084       .  S
C1376      H1384   1.082       .  S
C1377      H1385   1.087       .  S
C1377      C1378   1.343       .  D
C1378      H1386   1.086       .  S
C1379      H1387   1.087       .  S
C1379      C1380   1.342       .  D
C1380      H1388   1.086       .  S
C1389      C1397   1.489       .  S
C1389      C1390   1.403       .  A
C1389      C1394   1.408       .  A
C1390      C1391   1.400       .  A
C1390      H1399   1.084       .  S
C1391      C1392   1.408       .  A
C1391      H1400   1.080       .  S
C1392      C1395   1.489       .  S
C1392      C1393   1.404       .  A
C1393      C1394   1.399       .  A
C1393      H1401   1.084       .  S
C1394      H1402   1.081       .  S
C1395      H1403   1.087       .  S
C1395      C1396   1.346       .  D
C1396      H1404   1.084       .  S
C1397      H1405   1.087       .  S
C1397      C1398   1.345       .  D
C1398      H1406   1.085       .  S
C1407      C1415   1.484       .  S
C1407      C1408   1.403       .  A
C1407      C1412   1.406       .  A
C1408      C1409   1.401       .  A
C1408      H1417   1.083       .  S
C1409      C1410   1.410       .  A
C1409      H1418   1.080       .  S
C1410      C1413   1.487       .  S
C1410      C1411   1.403       .  A
C1411      C1412   1.394       .  A
C1411      H1419   1.084       .  S
C1412      H1420   1.082       .  S
C1413      H1421   1.088   1_545  S
C1413      C1414   1.346   1_545  D
C1414      H1422   1.083   1_565  S
C1415      H1423   1.087       .  S
C1415      C1416   1.343       .  D
C1416      H1424   1.086       .  S
C1425      C1433   1.485       .  S
C1425      C1426   1.401       .  A
C1425      C1430   1.408       .  A
C1426      C1427   1.397   1_554  A
C1426      H1435   1.084       .  S
C1427      C1428   1.408       .  A
C1427      H1436   1.081       .  S
C1428      C1431   1.487       .  S
C1428      C1429   1.403   1_556  A
C1429      C1430   1.400       .  A
C1429      H1437   1.083       .  S
C1430      H1438   1.082       .  S
C1431      H1439   1.087       .  S
C1431      C1432   1.344       .  D
C1432      H1440   1.085       .  S
C1433      H1441   1.087       .  S
C1433      C1434   1.342       .  D
C1434      H1442   1.085       .  S
C1443      C1451   1.480       .  S
C1443      C1444   1.402       .  A
C1443      C1448   1.406       .  A
C1444      C1445   1.399       .  A
C1444      H1453   1.084       .  S
C1445      C1446   1.408       .  A
C1445      H1454   1.081       .  S
C1446      C1449   1.480       .  S
C1446      C1447   1.401       .  A
C1447      C1448   1.392       .  A
C1447      H1455   1.084       .  S
C1448      H1456   1.082       .  S
C1449      H1457   1.088       .  S
C1449      C1450   1.343       .  D
C1450      H1458   1.085       .  S
C1451      H1459   1.088       .  S
C1451      C1452   1.342       .  D
C1452      H1460   1.086       .  S
C1461      C1469   1.481       .  S
C1461      C1462   1.401       .  A
C1461      C1466   1.407       .  A
C1462      C1463   1.397       .  A
C1462      H1471   1.084       .  S
C1463      C1464   1.407       .  A
C1463      H1472   1.082       .  S
C1464      C1467   1.483       .  S
C1464      C1465   1.402       .  A
C1465      C1466   1.400       .  A
C1465      H1473   1.084       .  S
C1466      H1474   1.083       .  S
C1467      H1475   1.087       .  S
C1467      C1468   1.342       .  D
C1468      H1476   1.086       .  S
C1469      H1477   1.087       .  S
C1469      C1470   1.342       .  D
C1470      H1478   1.086       .  S
C1479      C1487   1.485       .  S
C1479      C1480   1.404       .  A
C1479      C1484   1.408       .  A
C1480      C1481   1.399       .  A
C1480      H1489   1.084       .  S
C1481      C1482   1.407       .  A
C1481      H1490   1.082       .  S
C1482      C1485   1.481       .  S
C1482      C1483   1.401       .  A
C1483      C1484   1.394       .  A
C1483      H1491   1.084       .  S
C1484      H1492   1.081       .  S
C1485      H1493   1.087       .  S
C1485      C1486   1.343       .  D
C1486      H1494   1.085       .  S
C1487      H1495   1.087       .  S
C1487      C1488   1.344       .  D
C1488      H1496   1.084       .  S
C1497      C1505   1.488       .  S
C1497      C1498   1.404       .  A
C1497      C1502   1.407       .  A
C1498      C1499   1.403   1_556  A
C1498      H1507   1.084       .  S
C1499      C1500   1.409       .  A
C1499      H1508   1.082       .  S
C1500      C1503   1.487       .  S
C1500      C1501   1.402   1_554  A
C1501      C1502   1.397       .  A
C1501      H1509   1.084       .  S
C1502      H1510   1.082       .  S
C1503      H1511   1.087       .  S
C1503      C1504   1.345       .  D
C1504      H1512   1.085       .  S
C1505      H1513   1.087       .  S
C1505      C1506   1.345       .  D
C1506      H1514   1.086       .  S
C1515      C1523   1.485       .  S
C1515      C1516   1.404       .  A
C1515      C1520   1.407       .  A
C1516      C1517   1.398       .  A
C1516      H1525   1.083       .  S
C1517      C1518   1.407       .  A
C1517      H1526   1.082       .  S
C1518      C1521   1.484       .  S
C1518      C1519   1.402       .  A
C1519      C1520   1.398       .  A
C1519      H1527   1.083       .  S
C1520      H1528   1.081       .  S
C1521      H1529   1.087       .  S
C1521      C1522   1.343       .  D
C1522      H1530   1.085       .  S
C1523      H1531   1.087       .  S
C1523      C1524   1.346       .  D
C1524      H1532   1.085       .  S
C1533      C1541   1.489       .  S
C1533      C1534   1.403       .  A
C1533      C1538   1.409       .  A
C1534      C1535   1.400       .  A
C1534      H1543   1.084       .  S
C1535      C1536   1.408       .  A
C1535      H1544   1.081       .  S
C1536      C1539   1.488       .  S
C1536      C1537   1.403       .  A
C1537      C1538   1.398       .  A
C1537      H1545   1.084       .  S
C1538      H1546   1.081       .  S
C1539      H1547   1.088       .  S
C1539      C1540   1.346       .  D
C1540      H1548   1.085       .  S
C1541      H1549   1.087       .  S
C1541      C1542   1.344       .  D
C1542      H1550   1.085       .  S
C1551      C1559   1.482       .  S
C1551      C1552   1.402       .  A
C1551      C1556   1.406       .  A
C1552      C1553   1.399       .  A
C1552      H1561   1.083       .  S
C1553      C1554   1.410       .  A
C1553      H1562   1.080       .  S
C1554      C1557   1.487       .  S
C1554      C1555   1.403       .  A
C1555      C1556   1.395       .  A
C1555      H1563   1.083       .  S
C1556      H1564   1.082       .  S
C1557      H1565   1.088       .  S
C1557      C1558   1.344       .  D
C1558      H1566   1.083       .  S
C1559      H1567   1.087       .  S
C1559      C1560   1.342       .  D
C1560      H1568   1.086       .  S
