geometry optimzed in LAMMPS
_audit_creation_date              2020-12-01 
_audit_creation_method            'lammps2cif' 
_symmetry_space_group_name_H-M    'P1' 
_symmetry_Int_Tables_number       1 
_symmetry_cell_setting            triclinic 
loop_ 
_symmetry_equiv_pos_as_xyz 
  x,y,z 
_cell_length_a                    23.66621507 
_cell_length_b                    23.536158904601432 
_cell_length_c                    24.62371244135427 
_cell_angle_alpha                 91.93998858722235 
_cell_angle_beta                  90.5179974337319 
_cell_angle_gamma                 89.92094333638022 
loop_ 
_atom_site_label 
_atom_site_type_symbol 
_atom_site_fract_x 
_atom_site_fract_y 
_atom_site_fract_z 
_atom_site_charge 
C1          C  0.22807492  0.21105401  0.21276646     0.30400
C2          C  0.27353120  0.29096905  0.28303883     0.30400
C3          C  0.28441840  0.23726504  0.19623088    -0.05800
C4          C  0.19031656  0.26476911  0.22323211    -0.06600
C5          C  0.23915502  0.19065311  0.27136944    -0.06500
C6          C  0.30994645  0.27728569  0.23070473    -0.05800
C7          C  0.21492343  0.30427139  0.25879970    -0.06600
C8          C  0.26427571  0.23029857  0.30684358    -0.06500
C9          C  0.36019578  0.29128324  0.20283775    -0.31900
N10         N  0.36146637  0.26355614  0.15257138     0.14600
C11         C  0.31575768  0.23028021  0.14963309    -0.31900
H12         H  0.30645958  0.20201335  0.11521055     0.16600
C13         C  0.17853215  0.34959305  0.26561946    -0.30800
N14         N  0.13154437  0.34061549  0.23538175     0.13400
C15         C  0.13735410  0.28824162  0.20957774    -0.30800
C16         C  0.27068910  0.20320632  0.35665199    -0.31100
N17         N  0.24728125  0.14986126  0.35351337     0.13900
H18         H  0.29096479  0.22154487  0.39267692     0.16500
C19         C  0.22685609  0.14305823  0.30143311    -0.31100
H20         H  0.20459661  0.10572141  0.28588014     0.16500
H21         H  0.10564210  0.26875839  0.18310937     0.16500
H22         H  0.39321677  0.31946253  0.21795586     0.16600
H23         H  0.18554649  0.38722906  0.29124578     0.16500
N24         N  0.89774980  0.48691702  0.27207794    -0.36200
N25         N  0.98372393  0.39850777  0.24936476    -0.56800
N26         N  0.07147249  0.48707896  0.24401862    -0.36200
N27         N  0.98620357  0.57492337  0.25706604    -0.56800
C28         C  0.86597818  0.44001947  0.26018618     0.27400
C29         C  0.86599013  0.53302619  0.26017625     0.27400
C30         C  0.09969471  0.44012996  0.22506562     0.27300
C31         C  0.10278722  0.53370825  0.23245774     0.27300
C32         C  0.94115373  0.36785032  0.27055932     0.36000
C33         C  0.03120914  0.36622948  0.25260014     0.36000
C34         C  0.94112148  0.60672352  0.27419084     0.36000
C35         C  0.03356695  0.60785559  0.26321472     0.36000
C36         C  0.81381605  0.45653438  0.24014795    -0.21500
C37         C  0.81385071  0.51501458  0.24004535    -0.21500
C38         C  0.14931157  0.45733404  0.20098130    -0.21500
C39         C  0.15129266  0.51597545  0.20569423    -0.21500
C40         C  0.96223558  0.31657277  0.28823971    -0.22600
C41         C  0.01894368  0.31528952  0.27627637    -0.22600
C42         C  0.96044399  0.65984656  0.29213704    -0.22600
C43         C  0.01838586  0.66059621  0.28506641    -0.22600
C44         C  0.88274565  0.38290520  0.26804942    -0.17900
C45         C  0.88241569  0.59081695  0.26810109    -0.17900
C46         C  0.08985787  0.59165512  0.24717066    -0.17900
C47         C  0.08557860  0.38208433  0.23453122    -0.17900
H48         H  0.77961840  0.42952369  0.22551288     0.15000
H49         H  0.77956675  0.54089169  0.22535031     0.15000
H50         H  0.18143698  0.43026761  0.18272729     0.15000
H51         H  0.18484904  0.54244795  0.19105417     0.15000
H52         H  0.93905080  0.28309966  0.30723286     0.13300
H53         H  0.04790327  0.28103172  0.28476286     0.13300
H54         H  0.93526142  0.69492025  0.30806458     0.13300
H55         H  0.04607870  0.69610045  0.29482414     0.13300
H56         H  0.93726923  0.48747011  0.29111193     0.26500
H57         H  0.03629503  0.48677768  0.26896941     0.26500
C58         C  0.78950766  0.77779653  0.21588396     0.30400
C59         C  0.70556283  0.72636549  0.26955881     0.30400
C60         C  0.73194411  0.77321158  0.18362822    -0.05800
C61         C  0.80086283  0.71613290  0.23332759    -0.06600
C62         C  0.77150510  0.80811901  0.27146367    -0.06500
C63         C  0.69127879  0.74512864  0.21176634    -0.05800
C64         C  0.75946136  0.68927088  0.26159082    -0.06600
C65         C  0.72983901  0.77966987  0.29901665    -0.06500
C66         C  0.64367942  0.73880312  0.17939117    -0.31900
N67         N  0.65073982  0.76493522  0.13208244     0.14600
C68         C  0.70469003  0.78706225  0.13414464    -0.31900
H69         H  0.72315822  0.81092932  0.10198833     0.16600
C70         C  0.78480868  0.63933757  0.28031979    -0.30800
N71         N  0.83953978  0.63539294  0.26194501     0.13400
C72         C  0.84840283  0.68192634  0.23282422    -0.30800
C73         C  0.72389253  0.80570282  0.34999885    -0.31100
N74         N  0.75665652  0.85296326  0.35380408     0.13900
H75         H  0.69614609  0.79193461  0.38166792     0.16500
C76         C  0.78561837  0.85516276  0.30580769    -0.31100
H77         H  0.81511194  0.88852879  0.29668228     0.16500
H78         H  0.88795746  0.69081079  0.21339158     0.16500
H79         H  0.60570209  0.71626801  0.18972607     0.16600
H80         H  0.76524542  0.60919252  0.30650128     0.16500
N81         N  0.23345261  0.00146559  0.40559543    -0.36200
N82         N  0.24372610  0.91070480  0.48436439    -0.56800
N83         N  0.24471905  0.99861593  0.57373252    -0.36200
N84         N  0.24554115  0.08942753  0.49565210    -0.56800
C85         C  0.24474050  0.95462469  0.37308859     0.27400
C86         C  0.25324827  0.04788076  0.38002603     0.27400
C87         C  0.26211782  0.95162404  0.60005990     0.27300
C88         C  0.25556518  0.04484442  0.60711276     0.27300
C89         C  0.22769777  0.87911037  0.43930285     0.36000
C90         C  0.23930827  0.87697014  0.52819590     0.36000
C91         C  0.23601973  0.12301454  0.45230198     0.36000
C92         C  0.23428775  0.12102330  0.54194369     0.36000
C93         C  0.27278653  0.97134229  0.32734079    -0.21500
C94         C  0.27918388  0.02948353  0.33248396    -0.21500
C95         C  0.28541698  0.96864602  0.64988549    -0.21500
C96         C  0.28078898  0.02700196  0.65454513    -0.21500
C97         C  0.21254140  0.82516483  0.45520049    -0.22600
C98         C  0.22044962  0.82370509  0.51092245    -0.22600
C99         C  0.21809259  0.17606427  0.47144934    -0.22600
C100        C  0.21709857  0.17482965  0.52766874    -0.22600
C101        C  0.23168358  0.89687262  0.38387288    -0.17900
C102        C  0.24549650  0.10667766  0.39611999    -0.17900
C103        C  0.24209120  0.10270985  0.59679674    -0.17900
C104        C  0.25268634  0.89344376  0.58346627    -0.17900
H105        H  0.28924784  0.94423434  0.29479658     0.15000
H106        H  0.30243205  0.05531454  0.30541716     0.15000
H107        H  0.30341229  0.94163661  0.68027470     0.15000
H108        H  0.29494940  0.05330099  0.68890182     0.15000
H109        H  0.19759095  0.79008948  0.42943940     0.13300
H110        H  0.21263800  0.78764951  0.53592701     0.13300
H111        H  0.20600509  0.21188597  0.44757778     0.13300
H112        H  0.20480174  0.20966146  0.55485550     0.13300
H113        H  0.20925981  0.00208354  0.44078216     0.26500
H114        H  0.22122514  0.99872952  0.53780919     0.26500
N115        N  0.76086595  0.99746979  0.42383332    -0.36200
N116        N  0.76383400  0.08552866  0.51507313    -0.56800
N117        N  0.76021229  0.99699144  0.59124599    -0.36200
N118        N  0.74625153  0.90938004  0.49921755    -0.56800
C119        C  0.74431241  0.04540832  0.39926980     0.27400
C120        C  0.74710467  0.95281595  0.38965943     0.27400
C121        C  0.75352535  0.04395544  0.62484635     0.27300
C122        C  0.73478929  0.95236260  0.61480082     0.27300
C123        C  0.77127699  0.11834032  0.47134166     0.36000
C124        C  0.77982854  0.11704668  0.56006390     0.36000
C125        C  0.75988180  0.87670346  0.45434571     0.36000
C126        C  0.75162993  0.87605241  0.54296985     0.36000
C127        C  0.71847877  0.03064501  0.34995261    -0.21500
C128        C  0.72126560  0.97240608  0.34338979    -0.21500
C129        C  0.72287153  0.02919011  0.66973032    -0.21500
C130        C  0.71021722  0.97207764  0.66301707    -0.21500
C131        C  0.79194362  0.17098779  0.48849199    -0.22600
C132        C  0.79793444  0.17000514  0.54435427    -0.22600
C133        C  0.77402758  0.82262916  0.46965525    -0.22600
C134        C  0.76898662  0.82230535  0.52532554    -0.22600
C135        C  0.75742575  0.10227924  0.41645601    -0.17900
C136        C  0.75682871  0.89472940  0.39962674    -0.17900
C137        C  0.73977167  0.89333672  0.59810310    -0.17900
C138        C  0.77284949  0.10021092  0.61507105    -0.17900
H139        H  0.69959770  0.05915445  0.32140857     0.15000
H140        H  0.70475569  0.94731136  0.30919124     0.15000
H141        H  0.70955757  0.05698615  0.70310015     0.15000
H142        H  0.68637877  0.94750903  0.69126328     0.15000
H143        H  0.80174427  0.20643634  0.46335432     0.13300
H144        H  0.81315626  0.20476909  0.57034975     0.13300
H145        H  0.78726396  0.78719557  0.44364088     0.13300
H146        H  0.77845664  0.78648572  0.54955124     0.13300
H147        H  0.78548958  0.99570203  0.45902193     0.26500
H148        H  0.78583890  0.99413018  0.55706688     0.26500
C149        C  0.30003587  0.73301344  0.71954647     0.30400
C150        C  0.22196476  0.80146252  0.76931444     0.30400
C151        C  0.28151166  0.78535410  0.68597072    -0.05800
C152        C  0.24194716  0.70404994  0.72986519    -0.06600
C153        C  0.31621783  0.76058248  0.77529654    -0.06500
C154        C  0.24064315  0.81942518  0.71131785    -0.05800
C155        C  0.20307181  0.73917837  0.75613042    -0.06600
C156        C  0.27742987  0.79426109  0.80177583    -0.06500
C157        C  0.22205663  0.85732652  0.67264238    -0.31900
N158        N  0.25276172  0.85142002  0.62643223     0.14600
C159        C  0.28808227  0.80610986  0.63334890    -0.31900
H160        H  0.31621434  0.78943470  0.60230542     0.16600
C161        C  0.15369704  0.70829912  0.76055339    -0.30800
N162        N  0.15948350  0.65572013  0.73730986     0.13400
C163        C  0.21322159  0.65304511  0.71696134    -0.30800
C164        C  0.30121673  0.80800029  0.85331877    -0.31100
N165        N  0.35400060  0.78389455  0.85686968     0.13900
H166        H  0.28116806  0.83263794  0.88566776     0.16500
C167        C  0.36249699  0.75572981  0.80913968    -0.31100
H168        H  0.40039870  0.73196995  0.80040454     0.16500
H169        H  0.23042571  0.61676868  0.69453189     0.16500
H170        H  0.18797676  0.88758981  0.67682860     0.16600
H171        H  0.11525496  0.72262232  0.77927394     0.16500
N172        N  0.09790458  0.50791422  0.73700943    -0.36200
N173        N  0.01387689  0.59963859  0.75806378    -0.56800
N174        N  0.92387594  0.51258240  0.76437351    -0.36200
N175        N  0.00818678  0.42186113  0.75378732    -0.56800
C176        C  0.13031903  0.55454918  0.74843110     0.27400
C177        C  0.12835738  0.46152636  0.75107073     0.27400
C178        C  0.89614188  0.56086191  0.78194338     0.27300
C179        C  0.89141353  0.46614312  0.77549582     0.27300
C180        C  0.05718086  0.62818672  0.73531890     0.36000
C181        C  0.96719366  0.63323521  0.75452738     0.36000
C182        C  0.05271194  0.38869049  0.73763136     0.36000
C183        C  0.96033633  0.38979040  0.74757632     0.36000
C184        C  0.18099673  0.53761178  0.77110934    -0.21500
C185        C  0.17993798  0.47914142  0.77270744    -0.21500
C186        C  0.84552472  0.54435782  0.80478175    -0.21500
C187        C  0.84247172  0.48543665  0.80048309    -0.21500
C188        C  0.03722522  0.67927060  0.71613379    -0.22600
C189        C  0.98079641  0.68284555  0.72900357    -0.22600
C190        C  0.03256201  0.33578106  0.72014830    -0.22600
C191        C  0.97468991  0.33639419  0.72666473    -0.22600
C192        C  0.11542009  0.61174123  0.73784645    -0.17900
C193        C  0.11151402  0.40376155  0.74318696    -0.17900
C194        C  0.90415799  0.40693770  0.76271002    -0.17900
C195        C  0.91210331  0.61947574  0.77295848    -0.17900
H196        H  0.21439222  0.56461754  0.78688488     0.15000
H197        H  0.21300502  0.45290423  0.78927320     0.15000
H198        H  0.81335643  0.57207194  0.82203447     0.15000
H199        H  0.80792068  0.45973942  0.81431114     0.15000
H200        H  0.06097699  0.71117130  0.69545937     0.13300
H201        H  0.95282647  0.71755159  0.71938347     0.13300
H202        H  0.05695083  0.30008082  0.70436988     0.13300
H203        H  0.94645037  0.30137576  0.71675515     0.13300
H204        H  0.05911200  0.50757779  0.71656688     0.26500
H205        H  0.96032870  0.51172676  0.74114711     0.26500
C206        C  0.79102426  0.21922276  0.80129556     0.30400
C207        C  0.72377899  0.27823839  0.73334517     0.30400
C208        C  0.72972358  0.23136054  0.82015873    -0.05800
C209        C  0.81339645  0.28059354  0.78719100    -0.06600
C210        C  0.78308124  0.19055356  0.74298180    -0.06500
C211        C  0.69598940  0.26198758  0.78680880    -0.05800
C212        C  0.77864423  0.31108684  0.75235441    -0.06600
C213        C  0.74934384  0.22210002  0.70917658    -0.06500
C214        C  0.64438486  0.27041746  0.81353762    -0.31900
N215        N  0.64597079  0.24432158  0.86236142     0.14600
C216        C  0.69797846  0.21983187  0.86579446    -0.31900
H217        H  0.71215959  0.19545134  0.89975189     0.16600
C218        C  0.80831696  0.36105191  0.74043277    -0.30800
N219        N  0.85957892  0.36268921  0.76676475     0.13400
C220        C  0.86317950  0.31294011  0.79419390    -0.30800
C221        C  0.74586436  0.19350625  0.65889626    -0.31100
N222        N  0.77430834  0.14366628  0.65989641     0.13900
H223        H  0.72269809  0.20728739  0.62374994     0.16500
C224        C  0.79876347  0.14199713  0.71078393    -0.31100
H225        H  0.82577441  0.10779646  0.72368472     0.16500
H226        H  0.90041229  0.30006181  0.81647241     0.16500
H227        H  0.60878378  0.29445666  0.79866372     0.16600
H228        H  0.79523594  0.39268799  0.71215034     0.16500
N229        N  0.50135797  0.75494134  0.07826409    -0.36200
N230        N  0.58740890  0.75596735  0.99009575    -0.56800
N231        N  0.49803225  0.75835485  0.91116855    -0.36200
N232        N  0.41187648  0.76987498  0.99976336    -0.56800
C233        C  0.54853702  0.77330184  0.10583422     0.27400
C234        C  0.45566564  0.76345520  0.11126619     0.27400
C235        C  0.54433378  0.76268374  0.87889618     0.27300
C236        C  0.45441983  0.78555898  0.88673061     0.27300
C237        C  0.62097005  0.74933251  0.03458400     0.36000
C238        C  0.61685418  0.73626124  0.94593034     0.36000
C239        C  0.38070314  0.74983692  0.04131620     0.36000
C240        C  0.37893859  0.76656410  0.95413546     0.36000
C241        C  0.53171719  0.79508909  0.15640533    -0.21500
C242        C  0.47384889  0.78791372  0.16009384    -0.21500
C243        C  0.53021510  0.79298492  0.83364148    -0.21500
C244        C  0.47413073  0.80835072  0.83904574    -0.21500
C245        C  0.67163090  0.72487631  0.01849238    -0.22600
C246        C  0.66909629  0.71660722  0.96271721    -0.22600
C247        C  0.32816349  0.73300977  0.02127751    -0.22600
C248        C  0.32675970  0.74427120  0.96663687    -0.22600
C249        C  0.60665305  0.76521204  0.08940101    -0.17900
C250        C  0.39792595  0.75071623  0.09751692    -0.17900
C251        C  0.39578255  0.78238112  0.90120517    -0.17900
C252        C  0.59951530  0.74171268  0.89043035    -0.17900
H253        H  0.55844568  0.81387725  0.18797693     0.15000
H254        H  0.44793109  0.80112449  0.19413657     0.15000
H255        H  0.55773045  0.80394799  0.80072702     0.15000
H256        H  0.44993676  0.83209190  0.80997037     0.15000
H257        H  0.70628802  0.71273188  0.04431098     0.13300
H258        H  0.70217650  0.69863305  0.93737497     0.13300
H259        H  0.29431563  0.71396362  0.04337673     0.13300
H260        H  0.29185508  0.73516953  0.93904853     0.13300
H261        H  0.50078341  0.73262046  0.04111048     0.26500
H262        H  0.49498586  0.73304378  0.94484342     0.26500
N263        N  0.50459398  0.24571900  0.08966054    -0.36200
N264        N  0.41383526  0.24504623  0.00931347    -0.56800
N265        N  0.49853047  0.24269644  0.92237564    -0.36200
N266        N  0.58910463  0.23180996  0.00323346    -0.56800
C267        C  0.45836903  0.24168108  0.12154572     0.27400
C268        C  0.54812070  0.22038323  0.11581080     0.27400
C269        C  0.45132130  0.22518020  0.89415599     0.27300
C270        C  0.54463025  0.23197185  0.89058678     0.27300
C271        C  0.38517314  0.26561586  0.05362414     0.36000
C272        C  0.37917605  0.24974710  0.96511591     0.36000
C273        C  0.62277069  0.23704972  0.04816363     0.36000
C274        C  0.61984640  0.24925397  0.96059602     0.36000
C275        C  0.47222771  0.21329710  0.16806627    -0.21500
C276        C  0.52840335  0.19883453  0.16397710    -0.21500
C277        C  0.46841903  0.20235504  0.84412256    -0.21500
C278        C  0.52661548  0.20733834  0.84165482    -0.21500
C279        C  0.33214061  0.28373386  0.03708228    -0.22600
C280        C  0.32833207  0.27346680  0.98154566    -0.22600
C281        C  0.67495803  0.25815989  0.03429407    -0.22600
C282        C  0.67285264  0.26681341  0.97920303    -0.22600
C283        C  0.40360914  0.26193166  0.10931642    -0.17900
C284        C  0.60636315  0.22332351  0.10148287    -0.17900
C285        C  0.60250879  0.24385620  0.90479272    -0.17900
C286        C  0.39309109  0.23340937  0.91018660    -0.17900
H287        H  0.44451420  0.20293886  0.20101770     0.15000
H288        H  0.55236535  0.17615351  0.19399576     0.15000
H289        H  0.44175442  0.18397002  0.81226923     0.15000
H290        H  0.55273448  0.19304330  0.80805583     0.15000
H291        H  0.29917144  0.30179271  0.06250422     0.13300
H292        H  0.29261689  0.28366154  0.95612303     0.13300
H293        H  0.71032962  0.26781364  0.06117162     0.13300
H294        H  0.70683865  0.28404243  0.95575100     0.13300
H295        H  0.50729007  0.26988275  0.05510819     0.26500
H296        H  0.49928503  0.26571086  0.95919417     0.26500
C297        C  0.72805013  0.71249566  0.71550679     0.30400
C298        C  0.77188273  0.79789045  0.77922369     0.30400
C299        C  0.69282649  0.72639299  0.76872919    -0.05800
C300        C  0.78706517  0.70187257  0.74074205    -0.06600
C301        C  0.73164145  0.77091112  0.68884190    -0.06500
C302        C  0.71780858  0.76917608  0.80119264    -0.05800
C303        C  0.81203862  0.74437168  0.77275736    -0.06600
C304        C  0.75562530  0.81248312  0.72113717    -0.06500
C305        C  0.68852692  0.77419813  0.84952693    -0.31900
N306        N  0.64262762  0.74016317  0.84754841     0.14600
C307        C  0.64450339  0.71034686  0.79829993    -0.31900
H308        H  0.61321957  0.67932662  0.78496981     0.16600
C309        C  0.86344875  0.71904675  0.79071792    -0.30800
N310        N  0.86730729  0.66321052  0.77095080     0.13400
C311        C  0.82016137  0.65365633  0.74146002    -0.30800
C312        C  0.76076586  0.86040151  0.69102042    -0.31100
N313        N  0.73854284  0.85103913  0.64063022     0.13900
H314        H  0.78097890  0.89948548  0.70478598     0.16500
C315        C  0.71925791  0.79601393  0.63916899    -0.31100
H316        H  0.69884034  0.77504283  0.60450772     0.16500
H317        H  0.81073313  0.61341956  0.72090134     0.16500
H318        H  0.69915932  0.80221062  0.88386424     0.16600
H319        H  0.89478714  0.73958066  0.81690402     0.16500
C320        C  0.70233871  0.25853721  0.28498113     0.30400
C321        C  0.77894463  0.19241633  0.23040844     0.30400
C322        C  0.68428214  0.23367512  0.22901922    -0.05800
C323        C  0.75902728  0.28863419  0.27217270    -0.06600
C324        C  0.72378066  0.20738429  0.31638014    -0.06500
C325        C  0.72205283  0.20022534  0.20051469    -0.05800
C326        C  0.79782812  0.25489101  0.24357208    -0.06600
C327        C  0.76317326  0.17405087  0.28877852    -0.06500
C328        C  0.69919195  0.19281377  0.14783251    -0.31900
N329        N  0.64821781  0.22041941  0.14534587     0.14600
C330        C  0.64056477  0.24647983  0.19439303    -0.31900
H331        H  0.60545633  0.27441578  0.20374257     0.16600
C332        C  0.84675596  0.28680947  0.24040441    -0.30800
N333        N  0.84005819  0.33800071  0.26628708     0.13400
C334        C  0.78677866  0.33905637  0.28716569    -0.30800
C335        C  0.78495611  0.13694869  0.32631865    -0.31100
N336        N  0.75797456  0.14434956  0.37449594     0.13900
H337        H  0.81742573  0.10534717  0.31944401     0.16500
C338        C  0.72237707  0.18930634  0.36969263    -0.31100
H339        H  0.69628087  0.20657343  0.40213222     0.16500
H340        H  0.76975339  0.37350336  0.31225069     0.16500
H341        H  0.71880109  0.17024844  0.11392198     0.16600
H342        H  0.88593102  0.27431238  0.22201745     0.16500
C343        C  0.29021262  0.27085538  0.73046685     0.30400
C344        C  0.20954477  0.21477905  0.78419361     0.30400
C345        C  0.30678853  0.25063765  0.78741170    -0.05800
C346        C  0.23488892  0.30543879  0.74051823    -0.06600
C347        C  0.26737024  0.21726740  0.69963949    -0.06500
C348        C  0.26758923  0.22087382  0.81562245    -0.05800
C349        C  0.19500615  0.27615456  0.76835411    -0.06600
C350        C  0.22720149  0.18659433  0.72725508    -0.06500
C351        C  0.29520345  0.20880462  0.86553424    -0.31900
N352        N  0.34869105  0.23227890  0.86737303     0.14600
C353        C  0.35471634  0.25813358  0.81962413    -0.31900
H354        H  0.39195152  0.28178247  0.80905602     0.16600
C355        C  0.14693030  0.30960534  0.77241137    -0.30800
N356        N  0.15448004  0.35867560  0.74639904     0.13400
C357        C  0.20855573  0.35656109  0.72628901    -0.30800
C358        C  0.21363573  0.14015531  0.69173145    -0.31100
N359        N  0.24136429  0.14434650  0.64314222     0.13900
H360        H  0.18568135  0.10543481  0.70066555     0.16500
C361        C  0.27289571  0.19257532  0.64770575    -0.31100
H362        H  0.29947228  0.20800687  0.61586494     0.16500
H363        H  0.22712988  0.38907190  0.70207989     0.16500
H364        H  0.27700988  0.18554283  0.89824726     0.16600
H365        H  0.10842879  0.29859879  0.79285802     0.16500
C366        C  0.27569129  0.71309173  0.27278850     0.30400
C367        C  0.20965718  0.76934899  0.20200460     0.30400
C368        C  0.30455032  0.72453903  0.21694884    -0.05800
C369        C  0.21888868  0.68223834  0.25574154    -0.06600
C370        C  0.25462097  0.77287563  0.29239486    -0.06500
C371        C  0.27088025  0.75565852  0.18339953    -0.05800
C372        C  0.18466569  0.71278930  0.22175542    -0.06600
C373        C  0.22068938  0.80327861  0.25742270    -0.06500
C374        C  0.30275801  0.77059171  0.13883831    -0.31900
N375        N  0.35463701  0.74602490  0.14044176     0.14600
C376        C  0.35611208  0.71718226  0.18826297    -0.31900
H377        H  0.39232588  0.69328719  0.20195850     0.16600
C378        C  0.13282996  0.68431843  0.21665502    -0.30800
N379        N  0.13490947  0.63497891  0.24417401     0.13400
C380        C  0.18786856  0.63294491  0.26707862    -0.30800
C381        C  0.20758617  0.85408157  0.28758446    -0.31100
N382        N  0.23240382  0.85373193  0.33865448     0.13900
H383        H  0.18113896  0.88828556  0.27383231     0.16500
C384        C  0.26139909  0.80432828  0.34058339    -0.31100
H385        H  0.28637841  0.79197137  0.37521260     0.16500
H386        H  0.20257035  0.59796503  0.29088193     0.16500
H387        H  0.28867091  0.79821338  0.10717286     0.16600
H388        H  0.09657866  0.69834197  0.19354888     0.16500
C389        C  0.14225414  0.85018762  0.99482463     0.42800
N390        N  0.06265784  0.87540023  0.96248858     0.01700
C391        C  0.99222897  0.15688569  0.93974727    -0.06200
H392        H  0.11012733  0.09783084  0.11425684     0.07200
C393        C  0.95488024  0.00047606  0.17889364    -0.06500
Co394      Co  0.05879152  0.99722470  0.93684948     0.74200
N395        N  0.08298073  0.06013409  0.03894285    -0.25700
Co396      Co  0.00054839  0.07758421  0.04079560     0.74100
C397        C  0.97233298  0.05639988  0.20142752     0.42900
N398        N  0.95406034  0.89385200  0.08207856     0.01300
N399        N  0.99597307  0.04707030  0.11756211     0.01400
N400        N  0.01829783  0.09415088  0.87428071    -0.46500
H401        H  0.18144550  0.93671374  0.97871217     0.07200
N402        N  0.10857526  0.03779275  0.99638857     0.01700
N403        N  0.91647130  0.09168633  0.04267951     0.01500
C404        C  0.84068260  0.12733749  0.01029374     0.43100
N405        N  0.97784083  0.85973840  0.04583027    -0.28700
C406        C  0.01701005  0.95917085  0.82668850    -0.06100
N407        N  0.08984376  0.83248751  0.98291943    -0.46200
N408        N  0.89414153  0.13853024  0.02486520    -0.46500
C409        C  0.00952230  0.89994052  0.80780383     0.42800
N410        N  0.01996598  0.07175411  0.92217518     0.01700
N411        N  0.89155636  0.88977249  0.97130432    -0.25200
N412        N  0.09512493  0.91957437  0.95482795    -0.25700
N413        N  0.86847217  0.93101683  0.00061256     0.01400
H414        H  0.87022322  0.84717464  0.89727234     0.07200
H415        H  0.79266419  0.04347728  0.02117292     0.07300
N416        N  0.00352815  0.10657581  0.96157813    -0.25700
N417        N  0.96259903  0.00425275  0.12577739    -0.25300
N418        N  0.97856857  0.91150753  0.88913662     0.01700
C419        C  0.17378757  0.06469998  0.05152360     0.43100
C420        C  0.00411279  0.81795476  0.07166776    -0.06600
N421        N  0.88057615  0.04947738  0.04566450    -0.25300
H422        H  0.92544955  0.97085586  0.19565130     0.07300
N423        N  0.16429473  0.04194124  0.00099754    -0.46500
H424        H  0.02423752  0.78139345  0.05233379     0.07200
C425        C  0.81463727  0.91940643  0.93093095     0.42900
C426        C  0.14728253  0.90681768  0.97251496    -0.06100
Co427      Co  0.97713613  0.88246892  0.96676902     0.73800
N428        N  0.96537874  0.87899078  0.13183868    -0.46300
C429        C  0.00589272  0.14945339  0.88148296     0.43200
N430        N  0.97634882  0.87734290  0.84580324    -0.46200
Co431      Co  0.91384345  0.96886338  0.06423230     0.73900
C432        C  0.83034602  0.06871093  0.02763165    -0.06600
C433        C  0.11984408  0.07409780  0.07710709    -0.06100
N434        N  0.00620330  0.95836426  0.87937068    -0.25700
N435        N  0.00706166  0.07615976  0.16298058    -0.46400
H436        H  0.98251736  0.19568481  0.96258355     0.07200
C437        C  0.85719696  0.87461345  0.93094852    -0.06600
Cl438      Cl  0.98731536  0.98169306  0.00203082    -0.49600
C439        C  0.99103475  0.82792846  0.12939824     0.43000
H440        H  0.04585366  0.98986738  0.81074973     0.07200
N441        N  0.82234172  0.95082148  0.97715943    -0.46300
C442        C  0.50883504  0.39245971  0.32450852     0.42800
N443        N  0.52782548  0.44386675  0.39604358     0.01700
C444        C  0.44637947  0.44774110  0.65349481    -0.06200
H445        H  0.29544152  0.53118756  0.49059443     0.07200
C446        C  0.43836119  0.68103993  0.48932110    -0.06500
Co447      Co  0.47172008  0.40700274  0.49270733     0.74200
N448        N  0.37275098  0.48400289  0.50554251    -0.25700
Co449      Co  0.42418891  0.52725676  0.56238135     0.74100
C450        C  0.37763475  0.67312341  0.48121330     0.42900
N451        N  0.54671208  0.60330708  0.43731033     0.01300
N452        N  0.41216899  0.60283504  0.52393074     0.01400
N453        N  0.47940221  0.37010673  0.60964264    -0.46500
H454        H  0.44223563  0.34223013  0.37104459     0.07200
N455        N  0.39298336  0.43705726  0.48254591     0.01700
N456        N  0.47992053  0.56750099  0.61653107     0.01500
C457        C  0.50271543  0.61734698  0.68813934     0.43100
N458        N  0.56688077  0.55777577  0.41208351    -0.25100
C459        C  0.56539692  0.32984986  0.52453189    -0.06100
N460        N  0.53794060  0.43766180  0.34411786    -0.46200
N461        N  0.47164655  0.57304527  0.66884688    -0.46500
C462        C  0.62460450  0.33800466  0.53659497     0.42800
N463        N  0.46096592  0.40795760  0.57537088     0.01700
N464        N  0.63538425  0.52679938  0.50593102    -0.25200
N465        N  0.48657175  0.41122194  0.41136332    -0.25700
N466        N  0.61589040  0.57305381  0.53092814     0.01400
H467        H  0.70951154  0.47495710  0.52012447     0.07200
H468        H  0.57358982  0.66195475  0.64205946     0.07300
N469        N  0.44106543  0.45358279  0.60043521    -0.25700
N470        N  0.45593618  0.63362732  0.51160262    -0.25300
N471        N  0.59500703  0.40728211  0.48967865     0.01700
C472        C  0.31506464  0.44787779  0.44191186     0.43100
C473        C  0.55912396  0.56279482  0.35914033    -0.06600
N474        N  0.52169323  0.59920236  0.60082787    -0.25300
H475        H  0.46624534  0.71318165  0.47438466     0.07300
N476        N  0.36007310  0.41436248  0.44510889    -0.46500
H477        H  0.57450261  0.53303074  0.32852613     0.07200
C478        C  0.69126925  0.55449234  0.57401025     0.42900
C479        C  0.46968719  0.37874034  0.36849970    -0.06100
Co480      Co  0.58357537  0.48371797  0.45021961     0.73800
N481        N  0.52515716  0.63998732  0.40335928    -0.46300
C482        C  0.46991287  0.39126204  0.66058206     0.43200
N483        N  0.64128233  0.38512737  0.51071016    -0.46200
Co484      Co  0.53625578  0.60399947  0.51988643     0.73900
C485        C  0.54157330  0.62939181  0.64380859    -0.06600
C486        C  0.32218276  0.49481828  0.48208362    -0.06100
N487        N  0.55045408  0.37682256  0.50031548    -0.25700
N488        N  0.36431899  0.62526030  0.50722447    -0.46400
H489        H  0.43113018  0.47825536  0.68338185     0.07200
C490        C  0.68496993  0.51280361  0.52915591    -0.06600
Cl491      Cl  0.50399127  0.50557935  0.50633308    -0.49600
C492        C  0.53175293  0.61752864  0.35250810     0.43000
H493        H  0.53599708  0.30117624  0.54283370     0.07200
N494        N  0.64803042  0.59095065  0.57157106    -0.46300
C495        C  0.17947316  0.78918883  0.15157843    -0.05800
C496        C  0.16353042  0.84592949  0.14735093    -0.16900
C497        C  0.15196005  0.86822183  0.09640963     0.11400
C498        C  0.16224246  0.83467363  0.04856121    -0.05700
C499        C  0.17434805  0.77735798  0.05294497    -0.16900
C500        C  0.17979242  0.75316258  0.10327776     0.11500
S501        S  0.11971613  0.93726130  0.09421037    -0.31900
S502        S  0.19506333  0.67736097  0.10290544    -0.31900
H503        H  0.18472408  0.66482412  0.04745636     0.29500
H504        H  0.10298955  0.94091441  0.14891818     0.29500
H505        H  0.16097620  0.87308254  0.18338804     0.20100
H506        H  0.17757182  0.75092435  0.01618058     0.20100
C507        C  0.30969290  0.69034808  0.32003020    -0.05800
C508        C  0.27782549  0.66603296  0.36173498    -0.16900
C509        C  0.29677186  0.66492226  0.41516189     0.11400
C510        C  0.35152553  0.68378127  0.42808710    -0.05700
C511        C  0.38383450  0.70828880  0.38759924    -0.16900
C512        C  0.36261240  0.71527079  0.33547362     0.11500
S513        S  0.24624617  0.64515092  0.46569857    -0.31900
S514        S  0.39863779  0.76763213  0.29633293    -0.31900
H515        H  0.42485183  0.79767268  0.34006875     0.29500
H516        H  0.26629155  0.68408884  0.50602381     0.29500
H517        H  0.23395909  0.65603280  0.35610490     0.20100
H518        H  0.42517170  0.72534784  0.39680296     0.20100
C519        C  0.34179710  0.29997253  0.71006875    -0.05800
C520        C  0.35091889  0.35472372  0.73381130    -0.16900
C521        C  0.40455375  0.37833093  0.73550553     0.11400
C522        C  0.44543461  0.35474933  0.70082627    -0.05700
C523        C  0.44119084  0.29745702  0.68552492    -0.16900
C524        C  0.39083897  0.26862862  0.69233740     0.11500
S525        S  0.42146440  0.43708075  0.78195211    -0.31900
S526        S  0.39694526  0.19239743  0.68272892    -0.31900
H527        H  0.37011480  0.17821127  0.73092326     0.29500
H528        H  0.36789428  0.44172464  0.80601490     0.29500
H529        H  0.31832780  0.37555717  0.75765481     0.20100
H530        H  0.47589699  0.27635790  0.66454275     0.20100
C531        C  0.04591571  0.18535385  0.85370274    -0.05800
C532        C  0.08758014  0.21293659  0.88517548    -0.16900
C533        C  0.14189098  0.22078304  0.86496060     0.11400
C534        C  0.15725882  0.19498220  0.81364701    -0.05700
C535        C  0.11277686  0.17290015  0.78072994    -0.16900
C536        C  0.05746794  0.17079647  0.79916645     0.11500
S537        S  0.18538958  0.27331504  0.90071159    -0.31900
S538        S  0.00327367  0.14474833  0.75269842    -0.31900
H539        H  0.95747457  0.16512603  0.78388042     0.29500
H540        H  0.14272614  0.29776304  0.93340450     0.29500
H541        H  0.07825107  0.22691182  0.92644218     0.20100
H542        H  0.11905162  0.16213101  0.73843911     0.20100
C543        C  0.82027757  0.15215700  0.20200712    -0.05800
C544        C  0.87005241  0.17444405  0.18209949    -0.16900
C545        C  0.92194963  0.15013102  0.19527028     0.11400
C546        C  0.92327029  0.09410582  0.21498874    -0.05700
C547        C  0.87113346  0.06815772  0.22672272    -0.16900
C548        C  0.82016945  0.09444675  0.21458171     0.11500
S549        S  0.98522445  0.19282713  0.18997403    -0.31900
S550        S  0.75621833  0.05322821  0.21715019    -0.31900
H551        H  0.72705016  0.08477990  0.17853720     0.29500
H552        H  0.96076528  0.23755673  0.16145869     0.29500
H553        H  0.86825209  0.21350321  0.16049661     0.20100
H554        H  0.86939097  0.02554982  0.24164684     0.20100
C555        C  0.65222513  0.29276317  0.30553813    -0.05800
C556        C  0.64679680  0.34605634  0.28170399    -0.16900
C557        C  0.59423334  0.37039481  0.27312410     0.11400
C558        C  0.54696449  0.34959468  0.30016424    -0.05700
C559        C  0.55048205  0.29599464  0.32270793    -0.16900
C560        C  0.60127420  0.26553563  0.32212202     0.11500
S561        S  0.58763958  0.43043322  0.22991738    -0.31900
S562        S  0.59662281  0.19071041  0.33615663    -0.31900
H563        H  0.53734524  0.18615495  0.33581289     0.29500
H564        H  0.64567871  0.43970203  0.22214305     0.29500
H565        H  0.68218024  0.36466863  0.26162495     0.20100
H566        H  0.51371983  0.27814678  0.34151016     0.20100
C567        C  0.72015881  0.66309338  0.67498969    -0.05800
C568        C  0.69224171  0.61512200  0.69345990    -0.16900
C569        C  0.70525075  0.56155472  0.67075354     0.11400
C570        C  0.73090557  0.55755007  0.61941423    -0.05700
C571        C  0.76838331  0.60028910  0.60795948    -0.16900
C572        C  0.76153858  0.65433237  0.63232095     0.11500
S573        S  0.71327771  0.50406558  0.71617567    -0.31900
S574        S  0.81551998  0.70575661  0.61636126    -0.31900
H575        H  0.83994066  0.67629700  0.57180758     0.29500
H576        H  0.67662827  0.52583638  0.75648014     0.29500
H577        H  0.67098328  0.61764574  0.73203166     0.20100
H578        H  0.79627444  0.59396494  0.57363111     0.20100
C579        C  0.78416149  0.85449305  0.80846930    -0.05800
C580        C  0.73669567  0.88674543  0.82721037    -0.16900
C581        C  0.74435053  0.93234787  0.86386589     0.11400
C582        C  0.79954464  0.94498136  0.87905597    -0.05700
C583        C  0.83995116  0.93588676  0.83766486    -0.16900
C584        C  0.83445250  0.88660703  0.80379917     0.11500
S585        S  0.68591571  0.96199092  0.90164086    -0.31900
S586        S  0.88927494  0.87126897  0.75482821    -0.31900
H587        H  0.86624248  0.82433142  0.72659918     0.29500
H588        H  0.64335609  0.93912249  0.86713572     0.29500
H589        H  0.69400036  0.87483997  0.81593794     0.20100
H590        H  0.88015485  0.95771045  0.84029965     0.20100
C591        C  0.82394506  0.15000625  0.95743740    -0.05800
C592        C  0.80710727  0.11304897  0.91476515    -0.16900
C593        C  0.80114912  0.13191917  0.86157096     0.11400
C594        C  0.81847062  0.18809508  0.84850249    -0.05700
C595        C  0.83790687  0.22359089  0.89221394    -0.16900
C596        C  0.83794989  0.20638185  0.94578967     0.11500
S597        S  0.76167522  0.08585064  0.81538690    -0.31900
S598        S  0.85421786  0.25953003  0.99830853    -0.31900
H599        H  0.82095227  0.23519921  0.03852035     0.29500
H600        H  0.72794346  0.06226174  0.85539143     0.29500
H601        H  0.79702858  0.06934475  0.92301861     0.20100
H602        H  0.84592601  0.26803263  0.88673494     0.20100
C603        C  0.68138626  0.30158223  0.69414566    -0.05800
C604        C  0.68423611  0.35741465  0.67765681    -0.16900
C605        C  0.65843525  0.37176595  0.62903375     0.11400
C606        C  0.64092363  0.32778528  0.59266924    -0.05700
C607        C  0.62742714  0.27536325  0.61405631    -0.16900
C608        C  0.64168815  0.26458784  0.66758057     0.11500
S609        S  0.63314940  0.44300810  0.62328388    -0.31900
S610        S  0.61599532  0.20023500  0.69731134    -0.31900
H611        H  0.57868628  0.18408224  0.65477274     0.29500
H612        H  0.58041593  0.42772502  0.60088169     0.29500
H613        H  0.70199985  0.38962942  0.70452612     0.20100
H614        H  0.60560131  0.24336415  0.58920909     0.20100
C615        C  0.17814002  0.83821919  0.79826518    -0.05800
C616        C  0.13968735  0.81145934  0.83151550    -0.16900
C617        C  0.08202259  0.82354087  0.82705267     0.11400
C618        C  0.06433196  0.87108214  0.79663858    -0.05700
C619        C  0.10608822  0.90315798  0.77101592    -0.16900
C620        C  0.16291601  0.89087978  0.77822803     0.11500
S621        S  0.03307142  0.77285290  0.85454744    -0.31900
S622        S  0.21384974  0.94705065  0.77112290    -0.31900
H623        H  0.25970747  0.91668516  0.79250418     0.29500
H624        H  0.07194659  0.74566329  0.88858446     0.29500
H625        H  0.15346169  0.77439216  0.85292944     0.20100
H626        H  0.09514689  0.94158831  0.75039136     0.20100
C627        C  0.35148044  0.69716567  0.70391248    -0.05800
C628        C  0.39564848  0.72645727  0.67863072    -0.16900
C629        C  0.45225101  0.71007119  0.68370137     0.11400
C630        C  0.46600604  0.66139973  0.71284455    -0.05700
C631        C  0.42430905  0.63791619  0.74493953    -0.16900
C632        C  0.36730397  0.65074246  0.73713987     0.11500
S633        S  0.50679144  0.75571745  0.65860170    -0.31900
S634        S  0.31907392  0.61527191  0.78109293    -0.31900
H635        H  0.35270448  0.56734465  0.79113320     0.29500
H636        H  0.47142103  0.78980111  0.62698498     0.29500
H637        H  0.38733050  0.76626085  0.65993870     0.20100
H638        H  0.43594203  0.60277653  0.77013501     0.20100
C639        C  0.65211296  0.70154767  0.29062354    -0.05800
C640        C  0.63886166  0.64718034  0.26821334    -0.16900
C641        C  0.58369836  0.62785743  0.26913134     0.11400
C642        C  0.54742812  0.65275282  0.30750560    -0.05700
C643        C  0.55459449  0.71017643  0.32050060    -0.16900
C644        C  0.60533428  0.73638594  0.30876673     0.11500
S645        S  0.56140721  0.57089082  0.22360309    -0.31900
S646        S  0.60174556  0.81321108  0.31217872    -0.31900
H647        H  0.63132237  0.82273944  0.26433282     0.29500
H648        H  0.50489751  0.57151754  0.24103639     0.29500
H649        H  0.66893071  0.62382974  0.24312951     0.20100
H650        H  0.52251765  0.73330003  0.34335399     0.20100
C651        C  0.84453878  0.79408874  0.18887582    -0.05800
C652        C  0.88891831  0.81076405  0.22517728    -0.16900
C653        C  0.94559911  0.80361733  0.21177278     0.11400
C654        C  0.95953194  0.78606378  0.15879801    -0.05700
C655        C  0.91803280  0.75895358  0.12684756    -0.16900
C656        C  0.86089618  0.76595386  0.13884000     0.11500
S657        S  0.99915655  0.82735049  0.25977182    -0.31900
S658        S  0.81269152  0.72846833  0.09338492    -0.31900
H659        H  0.84614256  0.73022625  0.04648532     0.29500
H660        H  0.04513830  0.80780237  0.22832543     0.29500
H661        H  0.88065363  0.82420981  0.26649224     0.20100
H662        H  0.92994614  0.73875768  0.08846574     0.20100
C663        C  0.27489988  0.43470700  0.39894462    -0.05800
C664        C  0.29720789  0.44182269  0.34715944    -0.16900
C665        C  0.30200139  0.39580736  0.30969053     0.11400
C666        C  0.28436786  0.34027329  0.32436730    -0.05700
C667        C  0.25241825  0.33787859  0.37287126    -0.16900
C668        C  0.24554011  0.38479240  0.40834703     0.11500
S669        S  0.32719716  0.41383709  0.24385505    -0.31900
S670        S  0.20851051  0.37794815  0.47160827    -0.31900
H671        H  0.20154623  0.31862117  0.46783609     0.29500
H672        H  0.28150203  0.38884662  0.21524463     0.29500
H673        H  0.31721954  0.48185700  0.33833140     0.20100
H674        H  0.22837865  0.30051598  0.38156630     0.20100
C675        C  0.21499470  0.16747804  0.16731641    -0.05800
C676        C  0.19162062  0.18990010  0.11962581    -0.16900
C677        C  0.19827962  0.16218009  0.06916022     0.11400
C678        C  0.21702644  0.10547263  0.06713312    -0.05700
C679        C  0.24845475  0.08653606  0.11064126    -0.16900
C680        C  0.24915634  0.11714024  0.16026291     0.11500
S681        S  0.16750749  0.19386146  0.01071655    -0.31900
S682        S  0.30436576  0.09761979  0.20698726    -0.31900
H683        H  0.31261548  0.04154991  0.18695929     0.29500
H684        H  0.19161580  0.15482118  0.97301891     0.29500
H685        H  0.17326665  0.23192036  0.12013117     0.20100
H686        H  0.26840488  0.04513780  0.10698007     0.20100
loop_ 
_geom_bond_atom_site_label_1 
_geom_bond_atom_site_label_2 
_geom_bond_distance 
_geom_bond_site_symmetry_2 
_ccdc_geom_bond_type 
C1            C3   1.534       .  S
C1            C5   1.556       .  S
C1            C4   1.563       .  S
C1          C675   1.522       .  S
C2            C6   1.581       .  S
C2            C8   1.578       .  S
C2            C7   1.541       .  S
C2          C666   1.538       .  S
C3           C11   1.377       .  A
C3            C6   1.382       .  A
C4           C15   1.412       .  A
C4            C7   1.381       .  A
C5           C19   1.396       .  A
C5            C8   1.387       .  A
C6            C9   1.423       .  A
C7           C13   1.377       .  A
C8           C16   1.408       .  A
C9           N10   1.380       .  A
C9           H22   1.081       .  S
N10          C11   1.336       .  A
N10         C283   1.465       .  S
C11          H12   1.081       .  S
C13          N14   1.346       .  A
C13          H23   1.082       .  S
N14          C15   1.375       .  A
N14          C47   1.461       .  S
C15          H21   1.082       .  S
C16          N17   1.373       .  A
C16          H18   1.082       .  S
N17          C19   1.371       .  A
N17         C102   1.486       .  S
C19          H20   1.082       .  S
N24          C29   1.358       .  A
N24          C28   1.359       .  A
N24          H56   1.042       .  S
N25          C32   1.358       .  A
N25          C33   1.359   1_655  A
N26          C31   1.365       .  A
N26          C30   1.361       .  A
N26          H57   1.039       .  S
N27          C34   1.364       .  A
N27          C35   1.368   1_655  A
C28          C36   1.385       .  A
C28          C44   1.420       .  A
C29          C45   1.422       .  A
C29          C37   1.387       .  A
C30          C38   1.387       .  A
C30          C47   1.434       .  A
C31          C46   1.433       .  A
C31          C39   1.386       .  A
C32          C44   1.428       .  A
C32          C40   1.387       .  A
C33          C47   1.420       .  A
C33          C41   1.383       .  A
C34          C42   1.389       .  A
C34          C45   1.445       .  A
C35          C43   1.384       .  A
C35          C46   1.440       .  A
C36          C37   1.376       .  A
C36          H48   1.082       .  S
C37          H49   1.081       .  S
C38          C39   1.382       .  A
C38          H50   1.082       .  S
C39          H51   1.082       .  S
C40          C41   1.377   1_655  A
C40          H52   1.082       .  S
C41          H53   1.082       .  S
C42          C43   1.384   1_655  A
C42          H54   1.082       .  S
C43          H55   1.082       .  S
C44         N333   1.462       .  S
C45          N71   1.469       .  S
C46         N379   1.480       .  S
C58          C60   1.573       .  S
C58          C62   1.583       .  S
C58          C61   1.550       .  S
C58         C651   1.523       .  S
C59          C63   1.539       .  S
C59          C65   1.537       .  S
C59          C64   1.555       .  S
C59         C639   1.498       .  S
C60          C68   1.421       .  A
C60          C63   1.374       .  A
C61          C72   1.382       .  A
C61          C64   1.374       .  A
C62          C76   1.409       .  A
C62          C65   1.388       .  A
C63          C66   1.379       .  A
C64          C70   1.408       .  A
C65          C73   1.386       .  A
C66          N67   1.347       .  A
C66          H79   1.081       .  S
N67          C68   1.379       .  A
N67         C249   1.474       .  S
C68          H69   1.082       .  S
C70          N71   1.378       .  A
C70          H80   1.082       .  S
N71          C72   1.347       .  A
C72          H78   1.079       .  S
C73          N74   1.357       .  A
C73          H75   1.082       .  S
N74          C76   1.374       .  A
N74         C136   1.471       .  S
C76          H77   1.082       .  S
N81          C86   1.365       .  A
N81          C85   1.368   1_545  A
N81         H113   1.043       .  S
N82          C89   1.366       .  A
N82          C90   1.366       .  A
N83          C88   1.364   1_565  A
N83          C87   1.362       .  A
N83         H114   1.041       .  S
N84          C91   1.367       .  A
N84          C92   1.368       .  A
C85          C93   1.382       .  A
C85         C101   1.429       .  A
C86         C102   1.438       .  A
C86          C94   1.383       .  A
C87          C95   1.387       .  A
C87         C104   1.433       .  A
C88         C103   1.429       .  A
C88          C96   1.384       .  A
C89         C101   1.445       .  A
C89          C97   1.390       .  A
C90         C104   1.435       .  A
C90          C98   1.383       .  A
C91          C99   1.387       .  A
C91         C102   1.443       .  A
C92         C100   1.385       .  A
C92         C103   1.442       .  A
C93          C94   1.378   1_565  A
C93         H105   1.082       .  S
C94         H106   1.073       .  S
C95          C96   1.379   1_565  A
C95         H107   1.082       .  S
C96         H108   1.082       .  S
C97          C98   1.385       .  A
C97         H109   1.082       .  S
C98         H110   1.082       .  S
C99         C100   1.386       .  A
C99         H111   1.081       .  S
C100        H112   1.082       .  S
C101        N382   1.481       .  S
C103        N359   1.479       .  S
C104        N158   1.473       .  S
N115        C120   1.362       .  A
N115        C119   1.354   1_565  A
N115        H147   1.042       .  S
N116        C123   1.359       .  A
N116        C124   1.363       .  A
N117        C122   1.361       .  A
N117        C121   1.368   1_565  A
N117        H148   1.042       .  S
N118        C125   1.366       .  A
N118        C126   1.359       .  A
C119        C127   1.388       .  A
C119        C135   1.424       .  A
C120        C136   1.415       .  A
C120        C128   1.381       .  A
C121        C129   1.382       .  A
C121        C138   1.430       .  A
C122        C137   1.440       .  A
C122        C130   1.392       .  A
C123        C135   1.426       .  A
C123        C131   1.384       .  A
C124        C138   1.435       .  A
C124        C132   1.387       .  A
C125        C133   1.379       .  A
C125        C136   1.427       .  A
C126        C134   1.386       .  A
C126        C137   1.434       .  A
C127        C128   1.376   1_545  A
C127        H139   1.081       .  S
C128        H140   1.082       .  S
C129        C130   1.382   1_545  A
C129        H141   1.082       .  S
C130        H142   1.082       .  S
C131        C132   1.383       .  A
C131        H143   1.082       .  S
C132        H144   1.082       .  S
C133        C134   1.377       .  A
C133        H145   1.082       .  S
C134        H146   1.071       .  S
C135        N336   1.455       .  S
C137        N313   1.470       .  S
C138        N222   1.479       .  S
C149        C151   1.567       .  S
C149        C153   1.544       .  S
C149        C152   1.562       .  S
C149        C627   1.525       .  S
C150        C154   1.570       .  S
C150        C156   1.543       .  S
C150        C155   1.556       .  S
C150        C615   1.517       .  S
C151        C159   1.410       .  A
C151        C154   1.394       .  A
C152        C163   1.406       .  A
C152        C155   1.386       .  A
C153        C167   1.377       .  A
C153        C156   1.367       .  A
C154        C157   1.395       .  A
C155        C161   1.384       .  A
C156        C164   1.411       .  A
C157        N158   1.359       .  A
C157        H170   1.079       .  S
N158        C159   1.368       .  A
C159        H160   1.082       .  S
C161        N162   1.353       .  A
C161        H171   1.072       .  S
N162        C163   1.372       .  A
N162        C192   1.471       .  S
C163        H169   1.082       .  S
C164        N165   1.375       .  A
C164        H166   1.082       .  S
N165        C167   1.346       .  A
N165        C251   1.468       .  S
C167        H168   1.076       .  S
N172        C177   1.360       .  A
N172        C176   1.360       .  A
N172        H204   1.043       .  S
N173        C180   1.361       .  A
N173        C181   1.362   1_455  A
N174        C179   1.373       .  A
N174        C178   1.371       .  A
N174        H205   1.039       .  S
N175        C182   1.365       .  A
N175        C183   1.366   1_455  A
C176        C184   1.382       .  A
C176        C192   1.423       .  A
C177        C193   1.424       .  A
C177        C185   1.386       .  A
C178        C186   1.389       .  A
C178        C195   1.455       .  A
C179        C194   1.450       .  A
C179        C187   1.385       .  A
C180        C192   1.432       .  A
C180        C188   1.387       .  A
C181        C195   1.426       .  A
C181        C189   1.384       .  A
C182        C190   1.387       .  A
C182        C193   1.441       .  A
C183        C191   1.385       .  A
C183        C194   1.438       .  A
C184        C185   1.378       .  A
C184        H196   1.076       .  S
C185        H197   1.082       .  S
C186        C187   1.389       .  A
C186        H198   1.082       .  S
C187        H199   1.082       .  S
C188        C189   1.377   1_455  A
C188        H200   1.082       .  S
C189        H201   1.082       .  S
C190        C191   1.380   1_455  A
C190        H202   1.082       .  S
C191        H203   1.082       .  S
C193        N356   1.472       .  S
C194        N219   1.490       .  S
C195        N310   1.478       .  S
C206        C208   1.551       .  S
C206        C210   1.576       .  S
C206        C209   1.590       .  S
C206        C594   1.534       .  S
C207        C211   1.537       .  S
C207        C213   1.555       .  S
C207        C212   1.572       .  S
C207        C603   1.502       .  S
C208        C216   1.392       .  A
C208        C211   1.363       .  A
C209        C220   1.410       .  A
C209        C212   1.398       .  A
C210        C224   1.420       .  A
C210        C213   1.382       .  A
C211        C214   1.403       .  A
C212        C218   1.411       .  A
C213        C221   1.391       .  A
C214        N215   1.369       .  A
C214        H227   1.082       .  S
N215        C216   1.362       .  A
N215        C285   1.473       .  S
C216        H217   1.081       .  S
C218        N219   1.370       .  A
C218        H228   1.080       .  S
N219        C220   1.374       .  A
C220        H226   1.082       .  S
C221        N222   1.352       .  A
C221        H223   1.079       .  S
N222        C224   1.377       .  A
C224        H225   1.082       .  S
N229        C234   1.369       .  A
N229        C233   1.365       .  A
N229        H261   1.039       .  S
N230        C237   1.360   1_556  A
N230        C238   1.365       .  A
N231        C236   1.360       .  A
N231        C235   1.365       .  A
N231        H262   1.040       .  S
N232        C239   1.364   1_556  A
N232        C240   1.362       .  A
C233        C241   1.392       .  A
C233        C249   1.448       .  A
C234        C250   1.434       .  A
C234        C242   1.381       .  A
C235        C243   1.381       .  A
C235        C252   1.425       .  A
C236        C251   1.439       .  A
C236        C244   1.392       .  A
C237        C249   1.432       .  A
C237        C245   1.385       .  A
C238        C252   1.433       .  A
C238        C246   1.384       .  A
C239        C247   1.387       .  A
C239        C250   1.439       .  A
C240        C248   1.384       .  A
C240        C251   1.428       .  A
C241        C242   1.384       .  A
C241        H253   1.081       .  S
C242        H254   1.080       .  S
C243        C244   1.382       .  A
C243        H255   1.082       .  S
C244        H256   1.082       .  S
C245        C246   1.381   1_554  A
C245        H257   1.077       .  S
C246        H258   1.082       .  S
C247        C248   1.380   1_554  A
C247        H259   1.079       .  S
C248        H260   1.082       .  S
C250        N375   1.486       .  S
C252        N306   1.474       .  S
N263        C268   1.358       .  A
N263        C267   1.358       .  A
N263        H295   1.042       .  S
N264        C271   1.364       .  A
N264        C272   1.364   1_554  A
N265        C270   1.367       .  A
N265        C269   1.367       .  A
N265        H296   1.040       .  S
N266        C273   1.360       .  A
N266        C274   1.358   1_554  A
C267        C275   1.382       .  A
C267        C283   1.414       .  A
C268        C284   1.428       .  A
C268        C276   1.390       .  A
C269        C277   1.391       .  A
C269        C286   1.448       .  A
C270        C285   1.436       .  A
C270        C278   1.383       .  A
C271        C283   1.441       .  A
C271        C279   1.387       .  A
C272        C286   1.435       .  A
C272        C280   1.384       .  A
C273        C281   1.382       .  A
C273        C284   1.420       .  A
C274        C282   1.390       .  A
C274        C285   1.432       .  A
C275        C276   1.376       .  A
C275        H287   1.082       .  S
C276        H288   1.082       .  S
C277        C278   1.384       .  A
C277        H289   1.081       .  S
C278        H290   1.081       .  S
C279        C280   1.383   1_554  A
C279        H291   1.082       .  S
C280        H292   1.079       .  S
C281        C282   1.379   1_554  A
C281        H293   1.082       .  S
C282        H294   1.082       .  S
C284        N329   1.462       .  S
C286        N352   1.481       .  S
C297        C299   1.584       .  S
C297        C301   1.546       .  S
C297        C300   1.547       .  S
C297        C567   1.517       .  S
C298        C302   1.558       .  S
C298        C304   1.528       .  S
C298        C303   1.581       .  S
C298        C579   1.520       .  S
C299        C307   1.420       .  A
C299        C302   1.393       .  A
C300        C311   1.379       .  A
C300        C303   1.382       .  A
C301        C315   1.405       .  A
C301        C304   1.361       .  A
C302        C305   1.384       .  A
C303        C309   1.427       .  A
C304        C312   1.377       .  A
C305        N306   1.350       .  A
C305        H318   1.082       .  S
N306        C307   1.381       .  A
C307        H308   1.082       .  S
C309        N310   1.389       .  A
C309        H319   1.082       .  S
N310        C311   1.341       .  A
C311        H317   1.081       .  S
C312        N313   1.355       .  A
C312        H314   1.080       .  S
N313        C315   1.373       .  A
C315        H316   1.082       .  S
C320        C322   1.536       .  S
C320        C324   1.536       .  S
C320        C323   1.558       .  S
C320        C555   1.514       .  S
C321        C325   1.542       .  S
C321        C327   1.563       .  S
C321        C326   1.560       .  S
C321        C543   1.519       .  S
C322        C330   1.374       .  A
C322        C325   1.372       .  A
C323        C334   1.394       .  A
C323        C326   1.393       .  A
C324        C338   1.394       .  A
C324        C327   1.386       .  A
C325        C328   1.406       .  A
C326        C332   1.385       .  A
C327        C335   1.388       .  A
C328        N329   1.371       .  A
C328        H341   1.082       .  S
N329        C330   1.349       .  A
C330        H331   1.080       .  S
C332        N333   1.354       .  A
C332        H342   1.072       .  S
N333        C334   1.366       .  A
C334        H340   1.082       .  S
C335        N336   1.358       .  A
C335        H337   1.079       .  S
N336        C338   1.359       .  A
C338        H339   1.082       .  S
C343        C345   1.543       .  S
C343        C347   1.546       .  S
C343        C346   1.558       .  S
C343        C519   1.500       .  S
C344        C348   1.575       .  S
C344        C350   1.590       .  S
C344        C349   1.546       .  S
C344        C534   1.522       .  S
C345        C353   1.386       .  A
C345        C348   1.371       .  A
C346        C357   1.408       .  A
C346        C349   1.372       .  A
C347        C361   1.394       .  A
C347        C350   1.391       .  A
C348        C351   1.424       .  A
C349        C355   1.385       .  A
C350        C358   1.412       .  A
C351        N352   1.382       .  A
C351        H364   1.082       .  S
N352        C353   1.351       .  A
C353        H354   1.081       .  S
C355        N356   1.352       .  A
C355        H365   1.081       .  S
N356        C357   1.377       .  A
C357        H363   1.082       .  S
C358        N359   1.376       .  A
C358        H360   1.082       .  S
N359        C361   1.360       .  A
C361        H362   1.082       .  S
C366        C368   1.572       .  S
C366        C370   1.555       .  S
C366        C369   1.576       .  S
C366        C507   1.520       .  S
C367        C371   1.554       .  S
C367        C373   1.577       .  S
C367        C372   1.552       .  S
C367        C495   1.514       .  S
C368        C376   1.423       .  A
C368        C371   1.372       .  A
C369        C380   1.411       .  A
C369        C372   1.378       .  A
C370        C384   1.385       .  A
C370        C373   1.388       .  A
C371        C374   1.392       .  A
C372        C378   1.401       .  A
C373        C381   1.421       .  A
C374        N375   1.357       .  A
C374        H387   1.082       .  S
N375        C376   1.379       .  A
C376        H377   1.082       .  S
C378        N379   1.365       .  A
C378        H388   1.083       .  S
N379        C380   1.371       .  A
C380        H386   1.082       .  S
C381        N382   1.383       .  A
C381        H383   1.081       .  S
N382        C384   1.351       .  A
C384        H385   1.081       .  S
C389        N407   1.336       .  A
C389        C426   1.464       .  S
C389        C498   1.459   1_556  S
N390        N407   1.309       .  A
N390        N412   1.313       .  A
N390       Co427   2.034   1_455  S
C391        N416   1.342   1_655  A
C391        H436   1.082       .  S
C391        C429   1.478   1_655  S
H392        C433   1.082       .  S
C393        N417   1.328       .  A
C393        H422   1.080   1_545  S
C393        C397   1.469       .  S
Co394       N412   2.078       .  S
Co394       N402   2.080   1_565  S
Co394       N434   2.067       .  S
Co394       N410   2.021   1_565  S
Co394      Cl438   2.379   1_456  S
N395        C433   1.310       .  A
N395        N402   1.309   1_554  A
N395       Co396   1.994       .  S
Co396       N399   2.049   1_455  S
Co396       N416   2.090   1_554  S
Co396       N403   2.018   1_455  S
Co396      Cl438   2.440   1_445  S
C397        N435   1.354   1_655  A
C397        C546   1.494       .  S
N398        N405   1.310       .  A
N398        N428   1.311       .  A
N398       Co431   2.063       .  S
N399        N417   1.304       .  A
N399        N435   1.316   1_655  A
N400        C429   1.340       .  A
N400        N410   1.308       .  A
H401        C426   1.079       .  S
N402        N423   1.326   1_556  A
N403        N421   1.312       .  A
N403        N408   1.309       .  A
C404        N408   1.336       .  A
C404        C432   1.479       .  S
C404        C591   1.474   1_554  S
N405        C420   1.339   1_655  A
N405       Co427   2.036   1_554  S
C406        N434   1.325       .  A
C406        H440   1.080       .  S
C406        C409   1.465       .  S
C409        N430   1.350   1_455  A
C409        C618   1.487       .  S
N410        N416   1.310       .  A
N411        C437   1.318       .  A
N411        N413   1.311   1_556  A
N411       Co427   2.036       .  S
N412        C426   1.342       .  A
N413        N441   1.322   1_554  A
N413       Co431   2.068       .  S
H414        C437   1.081       .  S
H415        C432   1.080       .  S
N417       Co431   2.051   1_545  S
N418        N430   1.315       .  A
N418        N434   1.313   1_655  A
N418       Co427   2.052       .  S
C419        N423   1.355       .  A
C419        C433   1.442       .  S
C419        C678   1.444       .  S
C420        H424   1.081       .  S
C420        C439   1.469   1_455  S
N421        C432   1.348       .  A
N421       Co431   2.116   1_545  S
C425        N441   1.347       .  A
C425        C437   1.457       .  S
C425        C582   1.471       .  S
Co427      Cl438   2.475   1_556  S
N428        C439   1.346       .  A
C429        C531   1.460       .  S
Co431      Cl438   2.354       .  S
C439        C654   1.453       .  S
C442        N460   1.342       .  A
C442        C479   1.476       .  S
C442        C558   1.469       .  S
N443        N460   1.306       .  A
N443        N465   1.309       .  A
N443       Co480   2.071       .  S
C444        N469   1.323       .  A
C444        H489   1.075       .  S
C444        C482   1.456       .  S
H445        C486   1.080       .  S
C446        N470   1.325       .  A
C446        H475   1.081       .  S
C446        C450   1.460       .  S
Co447       N465   2.042       .  S
Co447       N455   2.009       .  S
Co447       N487   2.003       .  S
Co447       N463   2.053       .  S
Co447      Cl491   2.455       .  S
N448        C486   1.352       .  A
N448        N455   1.316       .  A
N448       Co449   2.086       .  S
Co449       N452   2.061       .  S
Co449       N469   2.036       .  S
Co449       N456   2.074       .  S
Co449      Cl491   2.393       .  S
C450        N488   1.354       .  A
C450        C510   1.471       .  S
N451        N458   1.312       .  A
N451        N481   1.321       .  A
N451       Co484   2.050       .  S
N452        N470   1.309       .  A
N452        N488   1.317       .  A
N453        C482   1.354       .  A
N453        N463   1.319       .  A
H454        C479   1.082       .  S
N455        N476   1.303       .  A
N456        N474   1.308       .  A
N456        N461   1.307       .  A
C457        N461   1.348       .  A
C457        C485   1.469       .  S
C457        C630   1.471       .  S
N458        C473   1.324       .  A
N458       Co480   2.044       .  S
C459        N487   1.320       .  A
C459        H493   1.082       .  S
C459        C462   1.441       .  S
C462        N483   1.359       .  A
C462        C606   1.458       .  S
N463        N469   1.310       .  A
N464        C490   1.346       .  A
N464        N466   1.317       .  A
N464       Co480   2.072       .  S
N465        C479   1.340       .  A
N466        N494   1.310       .  A
N466       Co484   2.039       .  S
H467        C490   1.081       .  S
H468        C485   1.081       .  S
N470       Co484   2.035       .  S
N471        N483   1.321       .  A
N471        N487   1.309       .  A
N471       Co480   2.089       .  S
C472        N476   1.328       .  A
C472        C486   1.467       .  S
C472        C663   1.442       .  S
C473        H477   1.077       .  S
C473        C492   1.455       .  S
N474        C485   1.337       .  A
N474       Co484   2.033       .  S
C478        N494   1.337       .  A
C478        C490   1.459       .  S
C478        C570   1.453       .  S
Co480      Cl491   2.391       .  S
N481        C492   1.353       .  A
C482        C522   1.458       .  S
Co484      Cl491   2.451       .  S
C492        C642   1.457       .  S
C495        C496   1.394       .  A
C495        C500   1.437       .  A
C496        C497   1.401       .  A
C496        H505   1.078       .  S
C497        C498   1.419       .  A
C497        S501   1.796       .  S
C498        C499   1.386       .  A
C499        C500   1.386       .  A
C499        H506   1.084       .  S
C500        S502   1.820       .  S
S501        H504   1.407       .  S
S502        H503   1.406       .  S
C507        C508   1.416       .  A
C507        C512   1.427       .  A
C508        C509   1.387       .  A
C508        H517   1.072       .  S
C509        C510   1.401       .  A
C509        S513   1.806       .  S
C510        C511   1.402       .  A
C511        C512   1.389       .  A
C511        H518   1.077       .  S
C512        S514   1.809       .  S
S513        H516   1.408       .  S
S514        H515   1.408       .  S
C519        C520   1.413       .  A
C519        C524   1.438       .  A
C520        C521   1.386       .  A
C520        H529   1.081       .  S
C521        C522   1.398       .  A
C521        S525   1.807       .  S
C522        C523   1.391       .  A
C523        C524   1.386       .  A
C523        H530   1.085       .  S
C524        S526   1.808       .  S
S525        H528   1.407       .  S
S526        H527   1.401       .  S
C531        C532   1.396       .  A
C531        C536   1.404       .  A
C532        C533   1.397       .  A
C532        H541   1.082       .  S
C533        C534   1.433       .  A
C533        S537   1.810       .  S
C534        C535   1.412       .  A
C535        C536   1.391       .  A
C535        H542   1.075       .  S
C536        S538   1.805       .  S
S537        H540   1.407       .  S
S538        H539   1.408   1_455  S
C543        C544   1.390       .  A
C543        C548   1.403       .  A
C544        C545   1.394       .  A
C544        H553   1.078       .  S
C545        C546   1.421       .  A
C545        S549   1.813       .  S
C546        C547   1.414       .  A
C547        C548   1.390       .  A
C547        H554   1.081       .  S
C548        S550   1.802       .  S
S549        H552   1.406       .  S
S550        H551   1.402       .  S
C555        C556   1.408       .  A
C555        C560   1.435       .  A
C556        C557   1.386       .  A
C556        H565   1.077       .  S
C557        C558   1.404       .  A
C557        S561   1.803       .  S
C558        C559   1.397       .  A
C559        C560   1.399       .  A
C559        H566   1.081       .  S
C560        S562   1.810       .  S
S561        H564   1.407       .  S
S562        H563   1.407       .  S
C567        C568   1.400       .  A
C567        C572   1.452       .  A
C568        C569   1.397       .  A
C568        H577   1.079       .  S
C569        C570   1.408       .  A
C569        S573   1.793       .  S
C570        C571   1.380       .  A
C571        C572   1.398       .  A
C571        H578   1.083       .  S
C572        S574   1.816       .  S
S573        H576   1.407       .  S
S574        H575   1.406       .  S
C579        C580   1.426       .  A
C579        C584   1.418       .  A
C580        C581   1.390       .  A
C580        H589   1.080       .  S
C581        C582   1.385       .  A
C581        S585   1.800       .  S
C582        C583   1.415       .  A
C583        C584   1.411       .  A
C583        H590   1.082       .  S
C584        S586   1.807       .  S
S585        H588   1.408       .  S
S586        H587   1.394       .  S
C591        C592   1.397       .  A
C591        C596   1.408       .  A
C592        C593   1.403       .  A
C592        H601   1.083       .  S
C593        C594   1.433       .  A
C593        S597   1.800       .  S
C594        C595   1.414       .  A
C595        C596   1.393       .  A
C595        H602   1.077       .  S
C596        S598   1.808       .  S
S597        H600   1.403       .  S
S598        H599   1.408   1_556  S
C603        C604   1.390       .  A
C603        C608   1.422       .  A
C604        C605   1.391       .  A
C604        H613   1.073       .  S
C605        C606   1.406       .  A
C605        S609   1.789       .  S
C606        C607   1.396       .  A
C607        C608   1.389       .  A
C607        H614   1.083       .  S
C608        S610   1.813       .  S
S609        H612   1.402       .  S
S610        H611   1.407       .  S
C615        C616   1.395       .  A
C615        C620   1.395       .  A
C616        C617   1.398       .  A
C616        H625   1.083       .  S
C617        C618   1.428       .  A
C617        S621   1.816       .  S
C618        C619   1.411       .  A
C619        C620   1.386       .  A
C619        H626   1.082       .  S
C620        S622   1.804       .  S
S621        H624   1.407       .  S
S622        H623   1.407       .  S
C627        C628   1.414       .  A
C627        C632   1.434       .  A
C628        C629   1.399       .  A
C628        H637   1.075       .  S
C629        C630   1.408       .  A
C629        S633   1.807       .  S
C630        C631   1.396       .  A
C631        C632   1.395       .  A
C631        H638   1.084       .  S
C632        S634   1.805       .  S
S633        H636   1.407       .  S
S634        H635   1.407       .  S
C639        C640   1.411       .  A
C639        C644   1.442       .  A
C640        C641   1.384       .  A
C640        H649   1.083       .  S
C641        C642   1.396       .  A
C641        S645   1.795       .  S
C642        C643   1.389       .  A
C643        C644   1.388       .  A
C643        H650   1.084       .  S
C644        S646   1.809       .  S
S645        H648   1.408       .  S
S646        H647   1.401       .  S
C651        C652   1.420       .  A
C651        C656   1.435       .  A
C652        C653   1.393       .  A
C652        H661   1.075       .  S
C653        C654   1.397       .  A
C653        S657   1.802       .  S
C654        C655   1.394       .  A
C655        C656   1.395       .  A
C655        H662   1.083       .  S
C656        S658   1.802       .  S
S657        H660   1.409   1_655  S
S658        H659   1.408       .  S
C663        C664   1.400       .  A
C663        C668   1.393       .  A
C664        C665   1.404       .  A
C664        H673   1.085       .  S
C665        C666   1.432       .  A
C665        S669   1.797       .  S
C666        C667   1.422       .  A
C667        C668   1.395       .  A
C667        H674   1.077       .  S
C668        S670   1.806       .  S
S669        H672   1.404       .  S
S670        H671   1.406       .  S
C675        C676   1.412       .  A
C675        C680   1.440       .  A
C676        C677   1.394       .  A
C676        H685   1.079       .  S
C677        C678   1.405       .  A
C677        S681   1.792       .  S
C678        C679   1.384       .  A
C679        C680   1.397       .  A
C679        H686   1.083       .  S
C680        S682   1.802       .  S
S681        H684   1.408   1_554  S
S682        H683   1.407       .  S
