geometry optimzed in LAMMPS
_audit_creation_date              2020-12-01 
_audit_creation_method            'lammps2cif' 
_symmetry_space_group_name_H-M    'P1' 
_symmetry_Int_Tables_number       1 
_symmetry_cell_setting            triclinic 
loop_ 
_symmetry_equiv_pos_as_xyz 
  x,y,z 
_cell_length_a                    34.65289821 
_cell_length_b                    34.65475574115988 
_cell_length_c                    34.653383709433 
_cell_angle_alpha                 89.78074595136155 
_cell_angle_beta                  89.79428341706083 
_cell_angle_gamma                 89.81166880084733 
loop_ 
_atom_site_label 
_atom_site_type_symbol 
_atom_site_fract_x 
_atom_site_fract_y 
_atom_site_fract_z 
_atom_site_charge 
N1          N  0.94803003  0.05125822  0.50515538    -0.36200
N2          N  0.95234778  0.96698147  0.50702386    -0.56800
N3          N  0.03640999  0.97108858  0.50653612    -0.36200
N4          N  0.03215736  0.05525271  0.50042799    -0.56800
C5          C  0.91016331  0.04250756  0.50116752     0.27400
C6          C  0.95226296  0.08926560  0.49674228     0.27400
C7          C  0.03163289  0.93273277  0.50055579     0.27400
C8          C  0.07399690  0.97935339  0.49964906     0.27400
C9          C  0.91406555  0.97128459  0.51350006     0.36000
C10         C  0.96046863  0.92911379  0.51224734     0.36000
C11         C  0.02428857  0.09349831  0.50228264     0.36000
C12         C  0.07081129  0.05139451  0.50471859     0.36000
C13         C  0.88998721  0.07554762  0.49070094    -0.21500
C14         C  0.91647858  0.10500129  0.48801487    -0.21500
C15         C  0.06677591  0.91638272  0.49039028    -0.21500
C16         C  0.09350354  0.94566868  0.49010208    -0.21500
C17         C  0.89778621  0.93592021  0.52274201    -0.22600
C18         C  0.92712674  0.90922097  0.52182111    -0.22500
C19         C  0.05827047  0.11400558  0.50690004    -0.22600
C20         C  0.08763330  0.08738660  0.50856295    -0.22500
C21         C  0.89294296  0.00601235  0.50842714    -0.17900
C22         C  0.98718007  0.11057726  0.49847704    -0.17900
C23         C  0.09160113  0.01611909  0.50314144    -0.17900
C24         C  0.99692205  0.91164406  0.50580336    -0.17900
H25         H  0.85926825  0.07827074  0.48577998     0.15000
H26         H  0.91003348  0.13469959  0.48064078     0.15000
H27         H  0.07270088  0.88633941  0.48424299     0.15000
H28         H  0.12388335  0.94243447  0.48348759     0.15000
H29         H  0.86775050  0.92984555  0.52882298     0.13300
H30         H  0.92416167  0.87857386  0.52714768     0.13300
H31         H  0.06166518  0.14497667  0.50877236     0.13300
H32         H  0.11798146  0.09385628  0.51181071     0.13300
H33         H  0.96882724  0.03343938  0.51672700     0.26600
H34         H  0.01640835  0.98968229  0.51837846     0.26600
Zn35       Zn  0.03221077  0.47692159  0.46153419     1.49700
Zn36       Zn  0.97061935  0.47819391  0.52940603     1.49400
Zn37       Zn  0.03250536  0.54549126  0.52530503     1.49100
Zn38       Zn  0.96752084  0.54283362  0.46031493     1.49500
O39         O  0.00055381  0.51094588  0.49407685    -1.83700
O40         O  0.02197816  0.42017297  0.47133626    -0.74400
O41         O  0.98386957  0.48813511  0.58570169    -0.74200
O42         O  0.08830854  0.53692444  0.51205006    -0.73700
O43         O  0.97876696  0.42107796  0.51871313    -0.74400
O44         O  0.08804735  0.48736532  0.47108325    -0.74000
O45         O  0.02593190  0.53613690  0.58285615    -0.74600
O46         O  0.97571995  0.60049888  0.46929466    -0.73900
O47         O  0.91425856  0.48932649  0.52164901    -0.74700
O48         O  0.02014870  0.60161132  0.51521090    -0.74100
O49         O  0.91170506  0.53090473  0.47225185    -0.74600
O50         O  0.97812639  0.53228226  0.40326271    -0.74500
O51         O  0.02298878  0.48647848  0.40486474    -0.74300
C52         C  0.99974952  0.40256152  0.49478669     0.77500
C53         C  0.00590507  0.51223264  0.60239989     0.78000
C54         C  0.10578693  0.51249926  0.49086855     0.77000
C55         C  0.99751784  0.61915673  0.49215245     0.77400
C56         C  0.89533061  0.50990571  0.49773348     0.78500
C57         C  0.00107770  0.50918010  0.38598172     0.77500
Zn58       Zn  0.52540556  0.03454911  0.53967083     1.49700
Zn59       Zn  0.45933043  0.03381041  0.47311359     1.49400
Zn60       Zn  0.52616843  0.97049715  0.47364426     1.49100
Zn61       Zn  0.45879109  0.97076701  0.53981806     1.49500
O62         O  0.49254848  0.00238568  0.50662535    -1.83700
O63         O  0.51425673  0.09077924  0.52881521    -0.74400
O64         O  0.46675348  0.02106802  0.41662361    -0.74200
O65         O  0.58326619  0.98047182  0.48349914    -0.73700
O66         O  0.47163198  0.08991213  0.48062960    -0.74400
O67         O  0.58246069  0.02546198  0.52905147    -0.74000
O68         O  0.51455722  0.97827213  0.41635028    -0.74600
O69         O  0.46815346  0.91474211  0.52861197    -0.73900
O70         O  0.40253801  0.02616052  0.48505597    -0.74700
O71         O  0.51633862  0.91477213  0.48566292    -0.74100
O72         O  0.40169269  0.98223582  0.53170463    -0.74600
O73         O  0.47043054  0.97867906  0.59643091    -0.74500
O74         O  0.51659210  0.02290621  0.59680948    -0.74300
C75         C  0.49317217  0.10802502  0.50405211     0.77500
C76         C  0.48972204  0.99880476  0.39845041     0.78000
C77         C  0.60087240  0.00299866  0.50646387     0.77000
C78         C  0.49232234  0.89713110  0.50721264     0.77400
C79         C  0.38398738  0.00498856  0.50878713     0.78500
C80         C  0.49406580  0.99987052  0.61470203     0.77500
N81         N  0.48683870  0.94973634  0.04877837    -0.36200
N82         N  0.48195210  0.03423341  0.04839427    -0.56800
N83         N  0.48793985  0.03369645  0.96426841    -0.36200
N84         N  0.48864616  0.94917149  0.96467918    -0.56800
C85         C  0.47826196  0.95627991  0.08636480     0.27400
C86         C  0.48201981  0.91151573  0.04217765     0.27400
C87         C  0.48109288  0.07175482  0.97017597     0.27400
C88         C  0.48366465  0.02678679  0.92605038     0.27400
C89         C  0.48527844  0.02825790  0.08690290     0.36000
C90         C  0.48625708  0.07263787  0.04231112     0.36000
C91         C  0.49486518  0.91112166  0.97114187     0.36000
C92         C  0.49484110  0.95526998  0.92658097     0.36000
C93         C  0.46826694  0.92167499  0.10395174    -0.21500
C94         C  0.47063384  0.89349679  0.07612545    -0.21500
C95         C  0.47294392  0.08936277  0.93510124    -0.21500
C96         C  0.47444163  0.06104519  0.90735735    -0.21500
C97         C  0.49095817  0.06316300  0.10542449    -0.22600
C98         C  0.49155169  0.09120872  0.07725014    -0.22500
C99         C  0.50456419  0.89290482  0.93689909    -0.22600
C100        C  0.50447568  0.92081479  0.90869741    -0.22500
C101        C  0.48154614  0.99206315  0.10592963    -0.17900
C102        C  0.48970493  0.89201874  0.00699379    -0.17900
C103        C  0.49000003  0.99098956  0.90712435    -0.17900
C104        C  0.48404953  0.09153302  0.00591067    -0.17900
H105        H  0.46045345  0.91708254  0.13388275     0.15000
H106        H  0.46496890  0.86309759  0.08052196     0.15000
H107        H  0.46681167  0.11957875  0.92991432     0.15000
H108        H  0.46975662  0.06534889  0.87677521     0.15000
H109        H  0.49415127  0.06797306  0.13609027     0.13300
H110        H  0.49532079  0.12181564  0.08199678     0.13300
H111        H  0.51064086  0.86256817  0.93257197     0.13300
H112        H  0.51056040  0.91617880  0.87840755     0.13300
H113        H  0.49960140  0.96934345  0.03001142     0.26600
H114        H  0.49901087  0.01448398  0.98442293     0.26600
N115        N  0.97216499  0.48892687  0.03593360    -0.36200
N116        N  0.05598967  0.49183651  0.03725805    -0.56800
N117        N  0.05678551  0.49794309  0.95274910    -0.36200
N118        N  0.97292711  0.49065538  0.95147579    -0.56800
C119        C  0.97833017  0.48325695  0.07412013     0.27400
C120        C  0.93489314  0.47991491  0.02869269     0.27400
C121        C  0.09490043  0.49239273  0.95943460     0.27400
C122        C  0.05101315  0.49424556  0.91428064     0.27400
C123        C  0.04939144  0.49567412  0.07559061     0.36000
C124        C  0.09424890  0.49732991  0.03167009     0.36000
C125        C  0.93432704  0.49226366  0.95742260     0.36000
C126        C  0.97889526  0.49861503  0.91365476     0.36000
C127        C  0.94434649  0.47093229  0.09142080    -0.21500
C128        C  0.91713428  0.46843300  0.06276389    -0.21500
C129        C  0.11367172  0.48582481  0.92462030    -0.21500
C130        C  0.08606909  0.48715712  0.89618884    -0.21500
C131        C  0.08378997  0.50294890  0.09449679    -0.22600
C132        C  0.11216514  0.50388142  0.06673841    -0.22500
C133        C  0.91566567  0.50062528  0.92306762    -0.22600
C134        C  0.94384526  0.50459530  0.89537485    -0.22500
C135        C  0.01314599  0.49086788  0.09415865    -0.17900
C136        C  0.91540932  0.48493822  0.99304884    -0.17900
C137        C  0.01526978  0.49842774  0.89476847    -0.17900
C138        C  0.11372357  0.49491629  0.99568735    -0.17900
H139        H  0.93940808  0.46465895  0.12163710     0.15000
H140        H  0.88732064  0.46005993  0.06679287     0.15000
H141        H  0.14420545  0.48088385  0.92006392     0.15000
H142        H  0.09128405  0.48329952  0.86563187     0.15000
H143        H  0.08811626  0.50675716  0.12516096     0.13300
H144        H  0.14255587  0.50877195  0.07182707     0.13300
H145        H  0.88491573  0.50339965  0.91837978     0.13300
H146        H  0.93902291  0.51091088  0.86515777     0.13300
H147        H  0.99082846  0.50277419  0.01702680     0.26600
H148        H  0.03657565  0.50753111  0.97267705     0.26600
Zn149      Zn  0.54920247  0.52381009  0.02968364     1.49700
Zn150      Zn  0.48005767  0.46001756  0.03048147     1.49400
Zn151      Zn  0.48171689  0.52600260  0.96722592     1.49100
Zn152      Zn  0.54590873  0.45664680  0.96599393     1.49500
O153        O  0.51450745  0.49160635  0.99835814    -1.83700
O154        O  0.53897061  0.51279818  0.08590674    -0.74400
O155        O  0.42346359  0.47163389  0.02122464    -0.74200
O156        O  0.49067968  0.58230119  0.97931127    -0.73700
O157        O  0.49097325  0.46996602  0.08634319    -0.74400
O158        O  0.53886547  0.58182193  0.02143585    -0.74000
O159        O  0.42447172  0.51574308  0.97468443    -0.74600
O160        O  0.53507279  0.46858962  0.91016525    -0.73900
O161        O  0.48707348  0.40307926  0.02008609    -0.74700
O162        O  0.49314216  0.51766014  0.91146412    -0.74100
O163        O  0.53261761  0.39966683  0.97504980    -0.74600
O164        O  0.60359843  0.46410619  0.97541324    -0.74500
O165        O  0.60601026  0.51108221  0.01899233    -0.74300
C166        C  0.51493288  0.49144589  0.10378860     0.77500
C167        C  0.40593812  0.49376664  0.99765300     0.78000
C168        C  0.51412097  0.60012658  0.00106998     0.77000
C169        C  0.51390711  0.49349423  0.89320786     0.77400
C170        C  0.50840598  0.38330994  0.99756157     0.78500
C171        C  0.62281062  0.48664822  0.99708247     0.77500
Zn172      Zn  0.47080642  0.53639477  0.46474271     1.49700
Zn173      Zn  0.53153183  0.53447612  0.53330379     1.49400
Zn174      Zn  0.46420222  0.47243763  0.53057025     1.49100
Zn175      Zn  0.53338192  0.46918854  0.46902719     1.49500
O176        O  0.50001063  0.50299212  0.49934982    -1.83700
O177        O  0.48267042  0.59198741  0.47407741    -0.74400
O178        O  0.52221657  0.52133926  0.58872332    -0.74200
O179        O  0.40908580  0.48666613  0.52007123    -0.73700
O180        O  0.52061315  0.59062837  0.52578195    -0.74400
O181        O  0.41408015  0.52994640  0.47273484    -0.74000
O182        O  0.47387832  0.47927052  0.58700843    -0.74600
O183        O  0.52247056  0.41379804  0.48155845    -0.73900
O184        O  0.58774790  0.52647225  0.52342248    -0.74700
O185        O  0.47082172  0.41605750  0.51993765    -0.74100
O186        O  0.58969810  0.47966591  0.47964362    -0.74600
O187        O  0.52396022  0.47631946  0.41198765    -0.74500
O188        O  0.48154183  0.52456745  0.40933455    -0.74300
C189        C  0.50164929  0.60898540  0.50028201     0.77500
C190        C  0.49827947  0.49918222  0.60550543     0.78000
C191        C  0.39392782  0.50957769  0.49568414     0.77000
C192        C  0.49605355  0.39721963  0.50100674     0.77400
C193        C  0.60645270  0.50349519  0.50182763     0.78500
C194        C  0.50293535  0.49968950  0.39288445     0.77500
C195        C  0.49894390  0.49656963  0.64758112     0.01700
C196        C  0.47299613  0.51883696  0.66951006     0.04600
C197        C  0.47456756  0.51747079  0.70992749    -0.11500
C198        C  0.50256580  0.49432659  0.72821835     0.23900
C199        C  0.52806201  0.47146683  0.70626246    -0.12100
C200        C  0.52605661  0.47241190  0.66584823     0.05300
C201        C  0.50546129  0.49426215  0.77058574     0.27700
C202        C  0.52671666  0.52327664  0.78923844    -0.12800
C203        C  0.53033256  0.52258787  0.82956006     0.05800
C204        C  0.51194636  0.49343914  0.85108558    -0.08700
C205        C  0.48979441  0.46514349  0.83249123     0.06600
C206        C  0.48698612  0.46519961  0.79215998    -0.13100
Br207      Br  0.56570888  0.43911204  0.73169353    -0.05200
Br208      Br  0.43595383  0.55172928  0.64404783     0.00500
Br209      Br  0.56079648  0.56108153  0.85531207     0.00900
Br210      Br  0.45743279  0.42592316  0.76637100    -0.03500
Br211      Br  0.56000048  0.44037077  0.63544284     0.01000
Br212      Br  0.43853346  0.54718869  0.74036367    -0.02800
Br213      Br  0.55034185  0.56408954  0.75947920    -0.03700
Br214      Br  0.46159045  0.42764608  0.86243643     0.00300
C215        C  0.50405370  0.49864489  0.35050701     0.01700
C216        C  0.49010197  0.46624089  0.33054565     0.04600
C217        C  0.49200326  0.46526833  0.29001889    -0.11500
C218        C  0.50843830  0.49641524  0.26955001     0.23900
C219        C  0.52223068  0.52884062  0.28954400    -0.12100
C220        C  0.51935875  0.53024104  0.32992448     0.05300
C221        C  0.51056312  0.49539721  0.22694176     0.27700
C222        C  0.53922864  0.47311217  0.20844833    -0.12800
C223        C  0.54017409  0.47101946  0.16796518     0.05800
C224        C  0.51374378  0.49271113  0.14603631    -0.08700
C225        C  0.48580847  0.51577249  0.16446809     0.06600
C226        C  0.48370270  0.51657604  0.20489373    -0.13100
Br227      Br  0.54570064  0.57101721  0.26157407    -0.05200
Br228      Br  0.46675782  0.42409811  0.35861488     0.00500
Br229      Br  0.57659572  0.43748504  0.14252503     0.00900
Br230      Br  0.44388199  0.54645827  0.23008132    -0.03500
Br231      Br  0.53708768  0.57523496  0.35709174     0.01000
Br232      Br  0.47176491  0.42156643  0.26235455    -0.02800
Br233      Br  0.57740151  0.44597413  0.23863195    -0.03700
Br234      Br  0.45083136  0.54672361  0.13421604     0.00300
C235        C  0.87224291  0.48394636  0.99363334     0.01700
C236        C  0.85134727  0.51648548  0.00644342     0.04600
C237        C  0.81071627  0.51568732  0.00776048    -0.11500
C238        C  0.79062721  0.48227584  0.99645510     0.23900
C239        C  0.81151859  0.44965557  0.98377371    -0.12100
C240        C  0.85220217  0.45055051  0.98216138     0.05300
C241        C  0.74753853  0.48214533  0.99640126     0.27700
C242        C  0.72674441  0.46971037  0.02918904    -0.12800
C243        C  0.68600032  0.47100341  0.02936501     0.05800
C244        C  0.66571938  0.48449581  0.99667531    -0.08700
C245        C  0.68660962  0.49601150  0.96356547     0.06600
C246        C  0.72733011  0.49508479  0.96354375    -0.13100
Br247      Br  0.78417134  0.40388759  0.96842378    -0.05200
Br248      Br  0.87863292  0.56245487  0.02153151     0.00500
Br249      Br  0.65790368  0.45288987  0.07389259     0.00900
Br250      Br  0.75579856  0.51192601  0.91862677    -0.03500
Br251      Br  0.88062171  0.40616416  0.96415237     0.01000
Br252      Br  0.78237829  0.56059227  0.02455744    -0.02800
Br253      Br  0.75430700  0.45079798  0.07373288    -0.03700
Br254      Br  0.65943435  0.51411743  0.91850502     0.00300
C255        C  0.15684995  0.49448722  0.99594551     0.01700
C256        C  0.17701921  0.45947422  0.00129336     0.04600
C257        C  0.21767775  0.45914876  0.00207498    -0.11500
C258        C  0.23840732  0.49363872  0.99616152     0.23900
C259        C  0.21822066  0.52855444  0.99022463    -0.12100
C260        C  0.17756564  0.52905036  0.99062723     0.05300
C261        C  0.28140397  0.49333629  0.99649470     0.27700
C262        C  0.30139279  0.50321391  0.03035721    -0.12800
C263        C  0.34204013  0.50381830  0.03053811     0.05800
C264        C  0.36309536  0.49390051  0.99705347    -0.08700
C265        C  0.34302516  0.48371847  0.96320924     0.06600
C266        C  0.30231115  0.48370334  0.96288009    -0.13100
Br267      Br  0.24646536  0.57564725  0.98137088    -0.05200
Br268      Br  0.14874331  0.41192065  0.00675480     0.00500
Br269      Br  0.36873308  0.52015198  0.07624464     0.00900
Br270      Br  0.27491788  0.47063069  0.91638419    -0.03500
Br271      Br  0.15002307  0.57706233  0.98419006     0.01000
Br272      Br  0.24513191  0.41161425  0.01177057    -0.02800
Br273      Br  0.27283264  0.51595838  0.07652484    -0.03700
Br274      Br  0.37121993  0.46818323  0.91772308     0.00300
C275        C  0.51169547  0.64305062  0.00286039     0.01700
C276        C  0.51476899  0.66537241  0.96875642     0.04600
C277        C  0.51042943  0.70586135  0.97004386    -0.11500
C278        C  0.50171950  0.72437627  0.00517340     0.23900
C279        C  0.49784825  0.70215392  0.03911369    -0.12100
C280        C  0.50363001  0.66179670  0.03815836     0.05300
C281        C  0.49811450  0.76733165  0.00661297     0.27700
C282        C  0.53092056  0.79004113  0.01413746    -0.12800
C283        C  0.52798461  0.83061984  0.01479535     0.05800
C284        C  0.49228952  0.84887247  0.00759869    -0.08700
C285        C  0.45949529  0.82621669  0.99980327     0.06600
C286        C  0.46228725  0.78556417  0.99978581    -0.13100
Br287      Br  0.48363394  0.72721965  0.08672064    -0.05200
Br288      Br  0.52618054  0.64072559  0.92023882     0.00500
Br289      Br  0.57307386  0.86148323  0.02459238     0.00900
Br290      Br  0.41710150  0.75469839  0.99054791    -0.03500
Br291      Br  0.49906555  0.63220442  0.08516100     0.01000
Br292      Br  0.51662523  0.73629378  0.92369220    -0.02800
Br293      Br  0.58002829  0.76531795  0.02312654    -0.03700
Br294      Br  0.41100338  0.85113775  0.98841103     0.00300
C295        C  0.50456465  0.34043115  0.99813183     0.01700
C296        C  0.50530066  0.32034359  0.03372954     0.04600
C297        C  0.49903608  0.28015555  0.03500236    -0.11500
C298        C  0.49195506  0.25950125  0.00081056     0.23100
C299        C  0.49080045  0.27942193  0.96528970    -0.12100
C300        C  0.49792987  0.31952057  0.96379486     0.05300
C301        C  0.48930575  0.21646436  0.00190269     0.27700
C302        C  0.52342224  0.19417687  0.00106911    -0.12800
C303        C  0.52159255  0.15358151  0.00271274     0.05800
C304        C  0.48561012  0.13478705  0.00492145    -0.08700
C305        C  0.45141061  0.15703908  0.00571483     0.06600
C306        C  0.45324548  0.19775923  0.00430467    -0.13100
Br307      Br  0.47887523  0.25153538  0.91874425    -0.05200
Br308      Br  0.51770914  0.34731162  0.08074763     0.00500
Br309      Br  0.56849358  0.12350463  0.00218677     0.00900
Br310      Br  0.40651588  0.22805908  0.00583270    -0.03500
Br311      Br  0.49834456  0.34534311  0.91449444     0.01000
Br312      Br  0.50037831  0.25302113  0.08368714    -0.02800
Br313      Br  0.57280738  0.21956389  0.99766630    -0.03700
Br314      Br  0.40214991  0.13149850  0.00859316     0.00300
C315        C  0.49250619  0.85493935  0.50713598     0.01700
C316        C  0.46557567  0.83490096  0.48456238     0.04600
C317        C  0.46671448  0.79443886  0.48329525    -0.11500
C318        C  0.49503320  0.77423780  0.50434497     0.23900
C319        C  0.52186798  0.79429674  0.52703791    -0.12100
C320        C  0.52027643  0.83468416  0.52879456     0.05300
C321        C  0.49649173  0.73180547  0.50300733     0.27700
C322        C  0.47748882  0.71007897  0.53168664    -0.12800
C323        C  0.47978498  0.66967713  0.53111483     0.05800
C324        C  0.50077793  0.65113643  0.50166238    -0.08700
C325        C  0.52000775  0.67286009  0.47314485     0.06600
C326        C  0.51774873  0.71328118  0.47372366    -0.13100
Br327      Br  0.56091058  0.76628690  0.55533385    -0.05200
Br328      Br  0.42752748  0.86301456  0.45515425     0.00500
Br329      Br  0.45358688  0.63963543  0.57017186     0.00900
Br330      Br  0.54375241  0.74343779  0.43464192    -0.03500
Br331      Br  0.55527326  0.86219917  0.56172325     0.01000
Br332      Br  0.42979194  0.76655025  0.45270277    -0.02800
Br333      Br  0.44810631  0.73582809  0.57143032    -0.03700
Br334      Br  0.55078677  0.64729468  0.43444676     0.00300
C335        C  0.49339910  0.15033739  0.50257515     0.01700
C336        C  0.47120268  0.17145876  0.52926040     0.04600
C337        C  0.47136801  0.21196352  0.52801958    -0.11500
C338        C  0.49330756  0.23133527  0.49969337     0.23900
C339        C  0.51502692  0.21017697  0.47254694    -0.12100
C340        C  0.51531771  0.16963628  0.47420932     0.05300
C341        C  0.49425230  0.27397881  0.49931162     0.27700
C342        C  0.46371888  0.29505486  0.48255736    -0.12800
C343        C  0.46374629  0.33556693  0.48401950     0.05800
C344        C  0.49474854  0.35494478  0.50147049    -0.08700
C345        C  0.52508385  0.33389858  0.51850755     0.06600
C346        C  0.52491984  0.29341552  0.51731080    -0.13100
Br347      Br  0.54425647  0.23686634  0.43323140    -0.05200
Br348      Br  0.44017149  0.14474414  0.56711001     0.00500
Br349      Br  0.42163843  0.36456226  0.46170844     0.00900
Br350      Br  0.56650677  0.26446525  0.54056113    -0.03500
Br351      Br  0.54636076  0.14046370  0.43831376     0.01000
Br352      Br  0.44185573  0.24106923  0.56529235    -0.02800
Br353      Br  0.42217403  0.26830061  0.45731071    -0.03700
Br354      Br  0.56565450  0.36055431  0.54542871     0.00300
C355        C  0.49533018  0.99736115  0.65765738     0.01700
C356        C  0.49457972  0.03121925  0.68033919     0.04600
C357        C  0.49450690  0.02861409  0.72097288    -0.11500
C358        C  0.49519416  0.99230001  0.73941393     0.23900
C359        C  0.49667853  0.95849203  0.71699836    -0.12100
C360        C  0.49672435  0.96092885  0.67632915     0.05300
C361        C  0.49415898  0.98996464  0.78241235     0.27700
C362        C  0.52817534  0.99556763  0.80388676    -0.12800
C363        C  0.52670121  0.99637610  0.84452434     0.05800
C364        C  0.49136403  0.99074371  0.86399059    -0.08700
C365        C  0.45754899  0.98391746  0.84258563     0.06600
C366        C  0.45887133  0.98383265  0.80191507    -0.13100
Br367      Br  0.49911436  0.90882667  0.74230700    -0.05200
Br368      Br  0.49153261  0.08143469  0.65619461     0.00500
Br369      Br  0.57303718  0.00521870  0.87378421     0.00900
Br370      Br  0.41228260  0.97580821  0.77277297    -0.03500
Br371      Br  0.50058306  0.91406371  0.64653609     0.01000
Br372      Br  0.49296774  0.07490673  0.75177941    -0.02800
Br373      Br  0.57678752  0.00202970  0.77742290    -0.03700
Br374      Br  0.40943082  0.97492430  0.86921622     0.00300
C375        C  0.48721363  0.99675473  0.35559483     0.01700
C376        C  0.48875204  0.03083802  0.33306170     0.04600
C377        C  0.48707405  0.02882487  0.29244129    -0.11500
C378        C  0.48223254  0.99300393  0.27396923     0.23900
C379        C  0.47910292  0.95914170  0.29640352    -0.12100
C380        C  0.48236864  0.96084761  0.33697084     0.05300
C381        C  0.48155080  0.99101373  0.23091765     0.27700
C382        C  0.44661079  0.99575614  0.21063898    -0.12800
C383        C  0.44654142  0.99624502  0.16990103     0.05800
C384        C  0.48132682  0.99139385  0.14917150    -0.08700
C385        C  0.51604171  0.98533239  0.16948127     0.06600
C386        C  0.51618222  0.98531051  0.21017392    -0.13100
Br387      Br  0.46962466  0.91052888  0.27128501    -0.05200
Br388      Br  0.49450129  0.08044822  0.35750614     0.00500
Br389      Br  0.39884128  0.00323784  0.14226758     0.00900
Br390      Br  0.56382671  0.97742384  0.23775046    -0.03500
Br391      Br  0.47860196  0.91394072  0.36693194     0.01000
Br392      Br  0.49204329  0.07513638  0.26174503    -0.02800
Br393      Br  0.39886623  0.00102241  0.23888073    -0.03700
Br394      Br  0.56344161  0.97711613  0.14132426     0.00300
C395        C  0.85306749  0.50929977  0.49983038     0.01700
C396        C  0.83221282  0.48341190  0.47677195     0.04600
C397        C  0.79180556  0.48203134  0.47959145    -0.11500
C398        C  0.77227806  0.50653530  0.50552299     0.23900
C399        C  0.79319793  0.53216896  0.52890288    -0.12100
C400        C  0.83360474  0.53386571  0.52569524     0.05300
C401        C  0.72962686  0.50687126  0.50623717     0.27700
C402        C  0.70943422  0.53335003  0.48279504    -0.12800
C403        C  0.66898280  0.53185505  0.48087439     0.05800
C404        C  0.64872691  0.50445225  0.50303532    -0.08700
C405        C  0.66878528  0.47887780  0.52748632     0.06600
C406        C  0.70930033  0.47971254  0.52872298    -0.13100
Br407      Br  0.76637246  0.56487908  0.56511231    -0.05200
Br408      Br  0.85901111  0.45046814  0.44080184     0.00500
Br409      Br  0.64123197  0.56685942  0.44751776     0.00900
Br410      Br  0.73705783  0.44350842  0.56075450    -0.03500
Br411      Br  0.86236139  0.57063663  0.55565655     0.01000
Br412      Br  0.76297412  0.44696334  0.44765739    -0.02800
Br413      Br  0.73740315  0.57140898  0.45315880    -0.03700
Br414      Br  0.64058245  0.44323910  0.55968318     0.00300
C415        C  0.14794090  0.51300539  0.48944203     0.01700
C416        C  0.16895947  0.48501453  0.51006875     0.04600
C417        C  0.20938670  0.48501128  0.50839222    -0.11500
C418        C  0.22872797  0.51375892  0.48704355     0.23900
C419        C  0.20768670  0.54190471  0.46653254    -0.12100
C420        C  0.16718328  0.54118057  0.46731274     0.05300
C421        C  0.27122465  0.51506938  0.48774942     0.27700
C422        C  0.28994484  0.53212448  0.51936040    -0.12800
C423        C  0.33028516  0.53010481  0.52223650     0.05800
C424        C  0.35183826  0.51183952  0.49301049    -0.08700
C425        C  0.33320614  0.49580830  0.46081202     0.06600
C426        C  0.29281849  0.49731786  0.45822044    -0.13100
Br427      Br  0.23444335  0.58164410  0.43806099    -0.05200
Br428      Br  0.14228883  0.44769737  0.54177274     0.00500
Br429      Br  0.35601171  0.55257727  0.56592917     0.00900
Br430      Br  0.26695236  0.47458328  0.41470446    -0.03500
Br431      Br  0.13800049  0.57814806  0.43755771     0.01000
Br432      Br  0.23843973  0.44590473  0.53557817    -0.02800
Br433      Br  0.26004487  0.55814757  0.55859020    -0.03700
Br434      Br  0.36304410  0.47025939  0.42120166     0.00300
C435        C  0.00811727  0.51246238  0.64542204     0.01700
C436        C  0.97393753  0.51135488  0.66790456     0.04600
C437        C  0.97594991  0.50984590  0.70854509    -0.11500
C438        C  0.01199115  0.50990273  0.72723196     0.23900
C439        C  0.04608415  0.51218971  0.70507700    -0.12100
C440        C  0.04427060  0.51346433  0.66438128     0.05300
C441        C  0.01397219  0.50703382  0.77018607     0.27700
C442        C  0.01553085  0.54068233  0.79290429    -0.12800
C443        C  0.01718484  0.53781698  0.83348339     0.05800
C444        C  0.01579225  0.50136341  0.85166718    -0.08700
C445        C  0.01393986  0.46774266  0.82896525     0.06600
C446        C  0.01381469  0.47053986  0.78836681    -0.13100
Br447      Br  0.09535115  0.51297361  0.73086600    -0.05200
Br448      Br  0.92399821  0.51420173  0.64343602     0.00500
Br449      Br  0.02119254  0.58375357  0.86440398     0.00900
Br450      Br  0.01362037  0.42440047  0.75744777    -0.03500
Br451      Br  0.09175117  0.51480213  0.63503826     0.01000
Br452      Br  0.92925044  0.50782396  0.73899617    -0.02800
Br453      Br  0.01471838  0.59065876  0.76827582    -0.03700
Br454      Br  0.01110617  0.41790313  0.85372754     0.00300
C455        C  0.01149104  0.49409210  0.13721898     0.01700
C456        C  0.01102006  0.53085296  0.15464132     0.04600
C457        C  0.01001154  0.53421696  0.19515538    -0.11500
C458        C  0.00791333  0.50089046  0.21851871     0.23900
C459        C  0.00786004  0.46414981  0.20113472    -0.12100
C460        C  0.01050369  0.46072989  0.16068037     0.05300
C461        C  0.00603375  0.50436675  0.26137113     0.27700
C462        C  0.04024155  0.50740119  0.28296865    -0.12800
C463        C  0.03861734  0.50970281  0.32356774     0.05800
C464        C  0.00262182  0.50850427  0.34302477    -0.08700
C465        C  0.96834880  0.50555828  0.32120110     0.06600
C466        C  0.97010319  0.50387071  0.28055264    -0.13100
Br467      Br  0.00399054  0.41853618  0.23296413    -0.05200
Br468      Br  0.01147878  0.57665217  0.12280964     0.00500
Br469      Br  0.08597366  0.51594092  0.35211054     0.00900
Br470      Br  0.92327879  0.50038448  0.25081899    -0.03500
Br471      Br  0.01311724  0.41036634  0.13731507     0.01000
Br472      Br  0.01182091  0.58444957  0.21884618    -0.02800
Br473      Br  0.08941256  0.50817883  0.25660462    -0.03700
Br474      Br  0.91895775  0.50113098  0.34677387     0.00300
C475        C  0.13471227  0.01751106  0.50446515     0.01700
C476        C  0.15648282  0.01856528  0.47002892     0.04600
C477        C  0.19710018  0.01665984  0.47136366    -0.11500
C478        C  0.21621737  0.01415090  0.50716554     0.23900
C479        C  0.19447411  0.01450503  0.54165092    -0.12100
C480        C  0.15385604  0.01639378  0.54029645     0.05300
C481        C  0.25918468  0.01165696  0.50849872     0.27700
C482        C  0.27776446  0.97542594  0.50925340    -0.12800
C483        C  0.31845593  0.97306622  0.50942257     0.05800
C484        C  0.34097196  0.00710696  0.50959573    -0.08700
C485        C  0.32207340  0.04340346  0.50958905     0.06600
C486        C  0.28144341  0.04557357  0.50853668    -0.13100
Br487      Br  0.22049403  0.01209032  0.59069590    -0.05200
Br488      Br  0.13041925  0.02269373  0.42112266     0.00500
Br489      Br  0.34290017  0.92298344  0.50692862     0.00900
Br490      Br  0.25590921  0.09512477  0.50675998    -0.03500
Br491      Br  0.12420679  0.01797953  0.58747824     0.01000
Br492      Br  0.22674870  0.01711290  0.42417545    -0.02800
Br493      Br  0.24710008  0.92902136  0.50935452    -0.03700
Br494      Br  0.35143882  0.09054626  0.51292437     0.00300
C495        C  0.84987889  0.00384141  0.50959356     0.01700
C496        C  0.82923969  0.99202665  0.47670729     0.04600
C497        C  0.78863562  0.99033745  0.47772716    -0.11500
C498        C  0.76836384  0.00143775  0.51127098     0.23900
C499        C  0.78901342  0.01265929  0.54435953    -0.12100
C500        C  0.82968571  0.01337264  0.54366207     0.05300
C501        C  0.72535642  0.00215077  0.51120920     0.27700
C502        C  0.70551535  0.03557538  0.49893956    -0.12800
C503        C  0.66485868  0.03576796  0.49692087     0.05800
C504        C  0.64372580  0.00262831  0.50755662    -0.08700
C505        C  0.66366851  0.96936973  0.52028842     0.06600
C506        C  0.70431356  0.96913650  0.52213794    -0.13100
Br507      Br  0.76142202  0.02725753  0.59047432    -0.05200
Br508      Br  0.85672608  0.97869600  0.43010968     0.00500
Br509      Br  0.63820702  0.08086171  0.47786700     0.00900
Br510      Br  0.73140647  0.92372640  0.53988683    -0.03500
Br511      Br  0.85801679  0.02679101  0.58945775     0.01000
Br512      Br  0.76053976  0.97270711  0.43323299    -0.02800
Br513      Br  0.73435137  0.08108736  0.48495351    -0.03700
Br514      Br  0.63529941  0.92444410  0.53647502     0.00300
C515        C  0.99836097  0.86856996  0.50276221     0.01700
C516        C  0.00863628  0.84577908  0.53493808     0.04600
C517        C  0.00745971  0.80516899  0.53262551    -0.11500
C518        C  0.99748332  0.78704238  0.49763715     0.23900
C519        C  0.98868191  0.80988595  0.46503709    -0.12100
C520        C  0.98835385  0.85046361  0.46781360     0.05300
C521        C  0.99712766  0.74402923  0.49495032     0.27700
C522        C  0.03209895  0.72353732  0.49116100    -0.12800
C523        C  0.03214537  0.68288660  0.48996548     0.05800
C524        C  0.99705416  0.66217721  0.49197623    -0.08700
C525        C  0.96189682  0.68285033  0.49489556     0.06600
C526        C  0.96200299  0.72357803  0.49652759    -0.13100
Br527      Br  0.97791410  0.78545584  0.41634777    -0.05200
Br528      Br  0.02431658  0.87037993  0.58213297     0.00500
Br529      Br  0.08063126  0.65595551  0.48418004     0.00900
Br530      Br  0.91403128  0.75156684  0.50170603    -0.03500
Br531      Br  0.97426449  0.88148422  0.42369975     0.01000
Br532      Br  0.01918650  0.77421678  0.57749489    -0.02800
Br533      Br  0.08007771  0.75149336  0.48722489    -0.03700
Br534      Br  0.91353812  0.65561393  0.49898879     0.00300
C535        C  0.99774203  0.35968185  0.49378812     0.01700
C536        C  0.96164317  0.34108551  0.49063748     0.04600
C537        C  0.95947692  0.30049070  0.49045518    -0.11500
C538        C  0.99335756  0.27803625  0.49238402     0.23900
C539        C  0.02952007  0.29641472  0.49457041    -0.12100
C540        C  0.03173062  0.33706373  0.49571777     0.05300
C541        C  0.99067913  0.23511169  0.49362320     0.27700
C542        C  0.98859135  0.21586130  0.52947763    -0.12800
C543        C  0.98538984  0.17536685  0.53092027     0.05800
C544        C  0.98517220  0.15371086  0.49655016    -0.08700
C545        C  0.98632156  0.17301782  0.46063855     0.06600
C546        C  0.98912542  0.21361178  0.45917874    -0.13100
Br547      Br  0.07595230  0.26560439  0.49645555    -0.05200
Br548      Br  0.91499404  0.37096441  0.48469473     0.00500
Br549      Br  0.98140802  0.14927725  0.58000428     0.00900
Br550      Br  0.99156982  0.23992049  0.41009954    -0.03500
Br551      Br  0.08125709  0.36143383  0.50229219     0.01000
Br552      Br  0.90995345  0.27530884  0.48803436    -0.02800
Br553      Br  0.99087755  0.24514829  0.57663483    -0.03700
Br554      Br  0.98395224  0.14369252  0.41355389     0.00300
loop_ 
_geom_bond_atom_site_label_1 
_geom_bond_atom_site_label_2 
_geom_bond_distance 
_geom_bond_site_symmetry_2 
_ccdc_geom_bond_type 
N1            C6   1.356       .  A
N1            C5   1.355       .  A
N1           H33   1.029       .  S
N2            C9   1.353       .  A
N2           C10   1.353       .  A
N3            C8   1.355       .  A
N3            C7   1.357       .  A
N3           H34   1.030       .  S
N4           C11   1.354       .  A
N4           C12   1.354       .  A
C5           C13   1.387       .  A
C5           C21   1.421       .  A
C6           C22   1.421       .  A
C6           C14   1.387       .  A
C7           C15   1.386       .  A
C7           C24   1.420   1_455  A
C8           C23   1.420   1_565  A
C8           C16   1.388       .  A
C9           C21   1.417   1_565  A
C9           C17   1.387       .  A
C10          C24   1.416       .  A
C10          C18   1.386       .  A
C11          C19   1.387       .  A
C11          C22   1.420   1_455  A
C12          C20   1.386       .  A
C12          C23   1.418       .  A
C13          C14   1.378       .  A
C13          H25   1.082       .  S
C14          H26   1.082       .  S
C15          C16   1.376       .  A
C15          H27   1.082       .  S
C16          H28   1.082       .  S
C17          C18   1.373       .  A
C17          H29   1.082       .  S
C18          H30   1.082       .  S
C19          C20   1.372       .  A
C19          H31   1.082       .  S
C20          H32   1.082       .  S
C21         C495   1.495       .  S
C22         C544   1.497       .  S
C23         C475   1.496       .  S
C24         C515   1.497       .  S
Zn35         O39   1.964       .  S
Zn35         O40   2.027       .  S
Zn35         O44   1.999       .  S
Zn35         O51   2.017       .  S
Zn36         O39   1.962   1_655  S
Zn36         O41   2.037       .  S
Zn36         O43   2.034       .  S
Zn36         O47   2.008       .  S
Zn37         O39   1.964       .  S
Zn37         O42   2.007       .  S
Zn37         O45   2.031       .  S
Zn37         O48   2.020       .  S
Zn38         O39   1.973   1_655  S
Zn38         O46   2.045       .  S
Zn38         O49   2.020       .  S
Zn38         O50   2.044       .  S
O40          C52   1.273   1_455  A
O41          C53   1.275   1_655  A
O42          C54   1.273       .  A
O43          C52   1.275       .  A
O44          C54   1.272       .  A
O45          C53   1.274       .  A
O46          C55   1.276       .  A
O47          C56   1.274       .  A
O48          C55   1.273   1_455  A
O49          C56   1.275       .  A
O50          C57   1.276   1_655  A
O51          C57   1.273       .  A
C52         C535   1.488       .  S
C53         C435   1.493       .  S
C54         C415   1.462       .  S
C55         C524   1.491       .  S
C56         C395   1.466       .  S
C57         C464   1.490       .  S
Zn58         O62   1.969       .  S
Zn58         O63   2.020       .  S
Zn58         O67   2.034       .  S
Zn58         O74   2.041       .  S
Zn59         O62   1.962       .  S
Zn59         O64   2.024       .  S
Zn59         O66   2.010       .  S
Zn59         O70   2.028       .  S
Zn60         O62   1.969   1_565  S
Zn60         O65   2.040       .  S
Zn60         O68   2.044       .  S
Zn60         O71   2.004       .  S
Zn61         O62   1.970   1_565  S
Zn61         O69   2.007       .  S
Zn61         O72   2.037       .  S
Zn61         O73   2.024       .  S
O63          C75   1.275       .  A
O64          C76   1.273   1_545  A
O65          C77   1.275   1_565  A
O66          C75   1.273       .  A
O67          C77   1.274       .  A
O68          C76   1.276       .  A
O69          C78   1.273       .  A
O70          C79   1.274       .  A
O71          C78   1.273       .  A
O72          C79   1.275   1_565  A
O73          C80   1.274       .  A
O74          C80   1.276   1_545  A
C75         C335   1.467       .  S
C76         C375   1.490       .  S
C77         C504   1.486       .  S
C78         C315   1.462       .  S
C79         C484   1.492       .  S
C80         C355   1.492       .  S
N81          C86   1.356       .  A
N81          C85   1.355       .  A
N81         H113   1.038       .  S
N82          C89   1.355       .  A
N82          C90   1.355       .  A
N83          C88   1.355       .  A
N83          C87   1.355       .  A
N83         H114   1.037       .  S
N84          C91   1.353       .  A
N84          C92   1.353       .  A
C85          C93   1.387       .  A
C85         C101   1.421       .  A
C86         C102   1.420       .  A
C86          C94   1.386       .  A
C87          C95   1.387       .  A
C87         C104   1.422   1_556  A
C88         C103   1.422   1_545  A
C88          C96   1.387       .  A
C89         C101   1.421   1_545  A
C89          C97   1.386       .  A
C90         C104   1.421       .  A
C90          C98   1.386       .  A
C91          C99   1.386       .  A
C91         C102   1.417   1_556  A
C92         C100   1.387       .  A
C92         C103   1.417       .  A
C93          C94   1.377       .  A
C93         H105   1.082       .  S
C94         H106   1.082       .  S
C95          C96   1.377       .  A
C95         H107   1.082       .  S
C96         H108   1.082       .  S
C97          C98   1.375       .  A
C97         H109   1.082       .  S
C98         H110   1.082       .  S
C99         C100   1.372       .  A
C99         H111   1.082       .  S
C100        H112   1.082       .  S
C101        C384   1.499       .  S
C102        C284   1.498       .  S
C103        C364   1.495       .  S
C104        C304   1.500       .  S
N115        C120   1.354       .  A
N115        C119   1.355       .  A
N115        H147   1.037       .  S
N116        C123   1.354       .  A
N116        C124   1.353       .  A
N117        C122   1.355       .  A
N117        C121   1.355       .  A
N117        H148   1.037       .  S
N118        C125   1.354       .  A
N118        C126   1.354       .  A
C119        C127   1.387       .  A
C119        C135   1.420   1_655  A
C120        C136   1.420   1_554  A
C120        C128   1.387       .  A
C121        C129   1.388       .  A
C121        C138   1.421       .  A
C122        C137   1.420       .  A
C122        C130   1.387       .  A
C123        C135   1.419       .  A
C123        C131   1.387       .  A
C124        C138   1.418   1_554  A
C124        C132   1.386       .  A
C125        C133   1.386       .  A
C125        C136   1.418       .  A
C126        C134   1.386       .  A
C126        C137   1.418   1_655  A
C127        C128   1.375       .  A
C127        H139   1.082       .  S
C128        H140   1.082       .  S
C129        C130   1.376       .  A
C129        H141   1.082       .  S
C130        H142   1.082       .  S
C131        C132   1.373       .  A
C131        H143   1.082       .  S
C132        H144   1.082       .  S
C133        C134   1.374       .  A
C133        H145   1.082       .  S
C134        H146   1.082       .  S
C135        C455   1.498       .  S
C136        C235   1.496       .  S
C137        C444   1.497       .  S
C138        C255   1.495       .  S
Zn149       O153   1.974   1_554  S
Zn149       O154   2.014       .  S
Zn149       O158   2.060       .  S
Zn149       O165   2.049       .  S
Zn150       O153   1.963   1_554  S
Zn150       O155   2.027       .  S
Zn150       O157   2.005       .  S
Zn150       O161   2.021       .  S
Zn151       O153   1.966       .  S
Zn151       O156   2.022       .  S
Zn151       O159   2.032       .  S
Zn151       O162   1.993       .  S
Zn152       O153   1.976       .  S
Zn152       O160   2.013       .  S
Zn152       O163   2.052       .  S
Zn152       O164   2.044       .  S
O154        C166   1.274       .  A
O155        C167   1.273   1_554  A
O156        C168   1.273   1_556  A
O157        C166   1.273       .  A
O158        C168   1.278       .  A
O159        C167   1.273       .  A
O160        C169   1.274       .  A
O161        C170   1.273   1_554  A
O162        C169   1.271       .  A
O163        C170   1.276       .  A
O164        C171   1.276       .  A
O165        C171   1.277   1_554  A
C166        C224   1.465       .  S
C167        C264   1.485       .  S
C168        C275   1.491       .  S
C169        C204   1.462       .  S
C170        C295   1.492       .  S
C171        C244   1.489       .  S
Zn172       O176   1.947       .  S
Zn172       O177   1.999       .  S
Zn172       O181   1.997       .  S
Zn172       O188   1.998       .  S
Zn173       O176   1.948       .  S
Zn173       O178   1.997       .  S
Zn173       O180   1.997       .  S
Zn173       O184   1.995       .  S
Zn174       O176   1.955       .  S
Zn174       O179   2.005       .  S
Zn174       O182   2.001       .  S
Zn174       O185   2.002       .  S
Zn175       O176   1.951       .  S
Zn175       O183   2.003       .  S
Zn175       O186   2.021       .  S
Zn175       O187   2.019       .  S
O177        C189   1.271       .  A
O178        C190   1.270       .  A
O179        C191   1.271       .  A
O180        C189   1.271       .  A
O181        C191   1.270       .  A
O182        C190   1.270       .  A
O183        C192   1.272       .  A
O184        C193   1.270       .  A
O185        C192   1.271       .  A
O186        C193   1.273       .  A
O187        C194   1.273       .  A
O188        C194   1.271       .  A
C189        C324   1.462       .  S
C190        C195   1.461       .  S
C191        C424   1.464       .  S
C192        C344   1.466       .  S
C193        C404   1.466       .  S
C194        C215   1.469       .  S
C195        C196   1.406       .  A
C195        C200   1.407       .  A
C196        C197   1.402       .  A
C196       Br208   1.928       .  S
C197        C198   1.408       .  A
C197       Br212   1.929       .  S
C198        C199   1.408       .  A
C198        C201   1.472       .  S
C199        C200   1.403       .  A
C199       Br207   1.930       .  S
C200       Br211   1.928       .  S
C201        C202   1.409       .  A
C201        C206   1.406       .  A
C202        C203   1.403       .  A
C202       Br213   1.930       .  S
C203        C204   1.406       .  A
C203       Br209   1.928       .  S
C204        C205   1.407       .  A
C205        C206   1.401       .  A
C205       Br214   1.926       .  S
C206       Br210   1.930       .  S
C215        C216   1.409       .  A
C215        C220   1.409       .  A
C216        C217   1.406       .  A
C216       Br228   1.930       .  S
C217        C218   1.410       .  A
C217       Br232   1.931       .  S
C218        C219   1.408       .  A
C218        C221   1.479       .  S
C219        C220   1.404       .  A
C219       Br227   1.931       .  S
C220       Br231   1.928       .  S
C221        C222   1.410       .  A
C221        C226   1.409       .  A
C222        C223   1.405       .  A
C222       Br233   1.929       .  S
C223        C224   1.406       .  A
C223       Br229   1.926       .  S
C224        C225   1.406       .  A
C225        C226   1.403       .  A
C225       Br234   1.926       .  S
C226       Br230   1.931       .  S
C235        C236   1.410   1_556  A
C235        C240   1.411       .  A
C236        C237   1.409       .  A
C236       Br248   1.930       .  S
C237        C238   1.410   1_554  A
C237       Br252   1.928       .  S
C238        C239   1.411       .  A
C238        C241   1.493       .  S
C239        C240   1.411       .  A
C239       Br247   1.928       .  S
C240       Br251   1.928       .  S
C241        C242   1.410   1_556  A
C241        C246   1.410       .  A
C242        C243   1.412       .  A
C242       Br253   1.930       .  S
C243        C244   1.413   1_554  A
C243       Br249   1.926       .  S
C244        C245   1.411       .  A
C245        C246   1.411       .  A
C245       Br254   1.928       .  S
C246       Br250   1.929       .  S
C255        C256   1.410   1_556  A
C255        C260   1.410       .  A
C256        C257   1.409       .  A
C256       Br268   1.928       .  S
C257        C258   1.410   1_554  A
C257       Br272   1.929       .  S
C258        C259   1.410       .  A
C258        C261   1.490       .  S
C259        C260   1.409       .  A
C259       Br267   1.929       .  S
C260       Br271   1.928       .  S
C261        C262   1.409   1_556  A
C261        C266   1.410       .  A
C262        C263   1.409       .  A
C262       Br273   1.930       .  S
C263        C264   1.411   1_554  A
C263       Br269   1.925       .  S
C264        C265   1.412       .  A
C265        C266   1.411       .  A
C265       Br274   1.929       .  S
C266       Br270   1.929       .  S
C275        C276   1.414   1_554  A
C275        C280   1.414       .  A
C276        C277   1.412       .  A
C276       Br288   1.928       .  S
C277        C278   1.410   1_556  A
C277       Br292   1.930       .  S
C278        C279   1.410       .  A
C278        C281   1.494       .  S
C279        C280   1.413       .  A
C279       Br287   1.929       .  S
C280       Br291   1.928       .  S
C281        C282   1.410       .  A
C281        C286   1.412   1_554  A
C282        C283   1.410       .  A
C282       Br293   1.929       .  S
C283        C284   1.410       .  A
C283       Br289   1.928       .  S
C284        C285   1.411   1_554  A
C285        C286   1.412       .  A
C285       Br294   1.928       .  S
C286       Br290   1.928       .  S
C295        C296   1.414   1_556  A
C295        C300   1.415       .  A
C296        C297   1.411       .  A
C296       Br308   1.932       .  S
C297        C298   1.409       .  A
C297       Br312   1.929       .  S
C298        C299   1.410   1_554  A
C298        C301   1.495       .  S
C299        C300   1.413       .  A
C299       Br307   1.930       .  S
C300       Br311   1.926       .  S
C301        C302   1.410       .  A
C301        C306   1.412       .  A
C302        C303   1.409       .  A
C302       Br313   1.930   1_554  S
C303        C304   1.410       .  A
C303       Br309   1.928       .  S
C304        C305   1.412       .  A
C305        C306   1.413       .  A
C305       Br314   1.928       .  S
C306       Br310   1.928       .  S
C315        C316   1.407       .  A
C315        C320   1.407       .  A
C316        C317   1.403       .  A
C316       Br328   1.929       .  S
C317        C318   1.408       .  A
C317       Br332   1.929       .  S
C318        C319   1.407       .  A
C318        C321   1.472       .  S
C319        C320   1.402       .  A
C319       Br327   1.931       .  S
C320       Br331   1.926       .  S
C321        C322   1.408       .  A
C321        C326   1.407       .  A
C322        C323   1.402       .  A
C322       Br333   1.930       .  S
C323        C324   1.407       .  A
C323       Br329   1.930       .  S
C324        C325   1.407       .  A
C325        C326   1.403       .  A
C325       Br334   1.927       .  S
C326       Br330   1.930       .  S
C335        C336   1.407       .  A
C335        C340   1.408       .  A
C336        C337   1.404       .  A
C336       Br348   1.929       .  S
C337        C338   1.409       .  A
C337       Br352   1.930       .  S
C338        C339   1.409       .  A
C338        C341   1.478       .  S
C339        C340   1.406       .  A
C339       Br347   1.930       .  S
C340       Br351   1.929       .  S
C341        C342   1.409       .  A
C341        C346   1.409       .  A
C342        C343   1.405       .  A
C342       Br353   1.929       .  S
C343        C344   1.408       .  A
C343       Br349   1.931       .  S
C344        C345   1.408       .  A
C345        C346   1.404       .  A
C345       Br354   1.930       .  S
C346       Br350   1.930       .  S
C355        C356   1.415   1_565  A
C355        C360   1.417       .  A
C356        C357   1.411       .  A
C356       Br368   1.931       .  S
C357        C358   1.409   1_545  A
C357       Br372   1.931       .  S
C358        C359   1.409       .  A
C358        C361   1.492       .  S
C359        C360   1.412       .  A
C359       Br367   1.930       .  S
C360       Br371   1.932       .  S
C361        C362   1.411       .  A
C361        C366   1.411       .  A
C362        C363   1.409       .  A
C362       Br373   1.928   1_565  S
C363        C364   1.410       .  A
C363       Br369   1.928   1_565  S
C364        C365   1.410       .  A
C365        C366   1.410       .  A
C365       Br374   1.929       .  S
C366       Br370   1.929       .  S
C375        C376   1.414   1_565  A
C375        C380   1.415       .  A
C376        C377   1.411       .  A
C376       Br388   1.931       .  S
C377        C378   1.410   1_545  A
C377       Br392   1.930       .  S
C378        C379   1.409       .  A
C378        C381   1.494       .  S
C379        C380   1.412       .  A
C379       Br387   1.929       .  S
C380       Br391   1.930       .  S
C381        C382   1.411       .  A
C381        C386   1.410       .  A
C382        C383   1.412       .  A
C382       Br393   1.928   1_565  S
C383        C384   1.411       .  A
C383       Br389   1.927   1_565  S
C384        C385   1.411       .  A
C385        C386   1.410       .  A
C385       Br394   1.928       .  S
C386       Br390   1.929       .  S
C395        C396   1.407       .  A
C395        C400   1.407       .  A
C396        C397   1.404       .  A
C396       Br408   1.927       .  S
C397        C398   1.409       .  A
C397       Br412   1.930       .  S
C398        C399   1.409       .  A
C398        C401   1.478       .  S
C399        C400   1.406       .  A
C399       Br407   1.929       .  S
C400       Br411   1.929       .  S
C401        C402   1.409       .  A
C401        C406   1.409       .  A
C402        C403   1.405       .  A
C402       Br413   1.930       .  S
C403        C404   1.407       .  A
C403       Br409   1.929       .  S
C404        C405   1.407       .  A
C405        C406   1.405       .  A
C405       Br414   1.927       .  S
C406       Br410   1.929       .  S
C415        C416   1.406       .  A
C415        C420   1.407       .  A
C416        C417   1.402       .  A
C416       Br428   1.930       .  S
C417        C418   1.409       .  A
C417       Br432   1.930       .  S
C418        C419   1.408       .  A
C418        C421   1.474       .  S
C419        C420   1.404       .  A
C419       Br427   1.929       .  S
C420       Br431   1.928       .  S
C421        C422   1.408       .  A
C421        C426   1.408       .  A
C422        C423   1.403       .  A
C422       Br433   1.931       .  S
C423        C424   1.407       .  A
C423       Br429   1.928       .  S
C424        C425   1.408       .  A
C425        C426   1.404       .  A
C425       Br434   1.931       .  S
C426       Br430   1.929       .  S
C435        C436   1.416   1_455  A
C435        C440   1.417       .  A
C436        C437   1.411       .  A
C436       Br448   1.932       .  S
C437        C438   1.409   1_655  A
C437       Br452   1.930       .  S
C438        C439   1.409       .  A
C438        C441   1.493       .  S
C439        C440   1.412       .  A
C439       Br447   1.930       .  S
C440       Br451   1.932       .  S
C441        C442   1.411       .  A
C441        C446   1.411       .  A
C442        C443   1.411       .  A
C442       Br453   1.928       .  S
C443        C444   1.410       .  A
C443       Br449   1.928       .  S
C444        C445   1.410       .  A
C445        C446   1.410       .  A
C445       Br454   1.928       .  S
C446       Br450   1.928       .  S
C455        C456   1.412       .  A
C455        C460   1.411       .  A
C456        C457   1.410       .  A
C456       Br468   1.929       .  S
C457        C458   1.410       .  A
C457       Br472   1.929       .  S
C458        C459   1.411       .  A
C458        C461   1.491       .  S
C459        C460   1.410       .  A
C459       Br467   1.929       .  S
C460       Br471   1.929       .  S
C461        C462   1.409       .  A
C461        C466   1.409   1_455  A
C462        C463   1.410       .  A
C462       Br473   1.931       .  S
C463        C464   1.416       .  A
C463       Br469   1.932       .  S
C464        C465   1.414   1_455  A
C465        C466   1.411       .  A
C465       Br474   1.931       .  S
C466       Br470   1.930       .  S
C475        C476   1.410       .  A
C475        C480   1.410       .  A
C476        C477   1.410       .  A
C476       Br488   1.928       .  S
C477        C478   1.411       .  A
C477       Br492   1.928       .  S
C478        C479   1.411       .  A
C478        C481   1.492       .  S
C479        C480   1.410       .  A
C479       Br487   1.928       .  S
C480       Br491   1.929       .  S
C481        C482   1.409   1_545  A
C481        C486   1.408       .  A
C482        C483   1.412       .  A
C482       Br493   1.930       .  S
C483        C484   1.417   1_565  A
C483       Br489   1.931       .  S
C484        C485   1.416       .  A
C485        C486   1.410       .  A
C485       Br494   1.932       .  S
C486       Br490   1.930       .  S
C495        C496   1.410   1_545  A
C495        C500   1.410       .  A
C496        C497   1.409       .  A
C496       Br508   1.929       .  S
C497        C498   1.410   1_565  A
C497       Br512   1.929       .  S
C498        C499   1.410       .  A
C498        C501   1.490       .  S
C499        C500   1.410       .  A
C499       Br507   1.928       .  S
C500       Br511   1.928       .  S
C501        C502   1.410       .  A
C501        C506   1.409   1_545  A
C502        C503   1.411       .  A
C502       Br513   1.929       .  S
C503        C504   1.411       .  A
C503       Br509   1.928       .  S
C504        C505   1.412   1_545  A
C505        C506   1.410       .  A
C505       Br514   1.925       .  S
C506       Br510   1.930       .  S
C515        C516   1.410   1_655  A
C515        C520   1.411       .  A
C516        C517   1.411       .  A
C516       Br528   1.928       .  S
C517        C518   1.412   1_455  A
C517       Br532   1.929       .  S
C518        C519   1.411       .  A
C518        C521   1.494       .  S
C519        C520   1.410       .  A
C519       Br527   1.929       .  S
C520       Br531   1.929       .  S
C521        C522   1.409   1_655  A
C521        C526   1.411       .  A
C522        C523   1.410       .  A
C522       Br533   1.931       .  S
C523        C524   1.415   1_455  A
C523       Br529   1.929       .  S
C524        C525   1.415       .  A
C525        C526   1.413       .  A
C525       Br534   1.931       .  S
C526       Br530   1.930       .  S
C535        C536   1.414       .  A
C535        C540   1.414   1_655  A
C536        C537   1.409       .  A
C536       Br548   1.928       .  S
C537        C538   1.408       .  A
C537       Br552   1.930       .  S
C538        C539   1.410   1_655  A
C538        C541   1.491       .  S
C539        C540   1.412       .  A
C539       Br547   1.929       .  S
C540       Br551   1.930       .  S
C541        C542   1.410       .  A
C541        C546   1.411       .  A
C542        C543   1.409       .  A
C542       Br553   1.929       .  S
C543        C544   1.410       .  A
C543       Br549   1.928       .  S
C544        C545   1.411       .  A
C545        C546   1.411       .  A
C545       Br554   1.928       .  S
C546       Br550   1.928       .  S
