geometry optimzed in LAMMPS
_audit_creation_date              2020-12-01 
_audit_creation_method            'lammps2cif' 
_symmetry_space_group_name_H-M    'P1' 
_symmetry_Int_Tables_number       1 
_symmetry_cell_setting            triclinic 
loop_ 
_symmetry_equiv_pos_as_xyz 
  x,y,z 
_cell_length_a                    43.03281964 
_cell_length_b                    43.039872971277326 
_cell_length_c                    71.9613525495249 
_cell_angle_alpha                 90.10017386211497 
_cell_angle_beta                  89.87376624405769 
_cell_angle_gamma                 90.24041083166252 
loop_ 
_atom_site_label 
_atom_site_type_symbol 
_atom_site_fract_x 
_atom_site_fract_y 
_atom_site_fract_z 
_atom_site_charge 
O1          O  0.06008418  0.82556918  0.55868345    -0.73500
O2          O  0.13812766  0.82462289  0.53240202    -0.73500
O3          O  0.11611243  0.79932153  0.56434442    -0.73600
O4          O  0.08149852  0.85040041  0.52673630    -0.73600
O5          O  0.09754798  0.89272995  0.54184639    -0.73600
O6          O  0.13003043  0.84136339  0.58056821    -0.73500
O7          O  0.15354343  0.86608783  0.54850334    -0.73500
O8          O  0.07512314  0.86837343  0.57363749    -0.73600
Ni9        Ni  0.09855675  0.82346897  0.54495460     1.25400
Ni10       Ni  0.11479347  0.86863675  0.56164402     1.25400
C11         C  0.05467254  0.84735056  0.57046072     0.88700
C12         C  0.15876564  0.84532562  0.53609705     0.88600
C13         C  0.12738692  0.81182530  0.57898762     0.88600
C14         C  0.08286445  0.87995172  0.52834211     0.88800
O15         O  0.83117810  0.76925709  0.66565369    -0.73500
O16         O  0.83488927  0.84387852  0.69410598    -0.73500
O17         O  0.79886623  0.79260518  0.69433529    -0.73600
O18         O  0.86747567  0.82044042  0.66513863    -0.73600
O19         O  0.83489261  0.84268607  0.64519723    -0.73600
O20         O  0.76571784  0.81467230  0.67459574    -0.73500
O21         O  0.80215203  0.86666831  0.67451804    -0.73500
O22         O  0.79814386  0.79152837  0.64596276    -0.73600
Ni23       Ni  0.83427073  0.80589140  0.68051367     1.25400
Ni24       Ni  0.79909224  0.82992014  0.65937789     1.25400
C25         C  0.81371200  0.76787725  0.65129957     0.88700
C26         C  0.81889470  0.86748702  0.68923903     0.88600
C27         C  0.77109182  0.79799966  0.68894914     0.88600
C28         C  0.86255994  0.83524201  0.65001908     0.88800
O29         O  0.11229918  0.62890820  0.67764999    -0.73500
O30         O  0.11349666  0.54833420  0.69956193    -0.73500
O31         O  0.14173191  0.60344892  0.70682416    -0.73600
O32         O  0.08457229  0.57405333  0.67013863    -0.73600
O33         O  0.12433974  0.56185738  0.65161066    -0.73600
O34         O  0.18108438  0.58893631  0.68854281    -0.73500
O35         O  0.15234488  0.53459572  0.68079170    -0.73500
O36         O  0.15285666  0.61583295  0.65991582    -0.73600
Ni37       Ni  0.11156722  0.58900983  0.68926754     1.25400
Ni38       Ni  0.15403612  0.57466048  0.66960576     1.25400
C39         C  0.13280301  0.63574786  0.66540987     0.88700
C40         C  0.13280170  0.52804672  0.69364256     0.88600
C41         C  0.17084989  0.60240502  0.70314146     0.88600
C42         C  0.09515652  0.56422381  0.65454838     0.88800
O43         O  0.92500267  0.58669352  0.54892161    -0.73500
O44         O  0.85596021  0.58920220  0.51553049    -0.73500
O45         O  0.86789888  0.61318115  0.54942045    -0.73600
O46         O  0.91295427  0.56305864  0.51514065    -0.73600
O47         O  0.89332881  0.52035659  0.52820024    -0.73600
O48         O  0.84860474  0.57063605  0.56292764    -0.73500
O49         O  0.83659901  0.54654220  0.52886819    -0.73500
O50         O  0.90526103  0.54390913  0.56185754    -0.73600
Ni51       Ni  0.89107545  0.58962828  0.53178702     1.25400
Ni52       Ni  0.87012875  0.54390961  0.54593572     1.25400
C53         C  0.92692161  0.56419551  0.56050668     0.88700
C54         C  0.83511518  0.56795865  0.51660863     0.88600
C55         C  0.85104071  0.60025503  0.56189777     0.88600
C56         C  0.91123480  0.53342555  0.51629231     0.88800
O57         O  0.59198340  0.66285670  0.79497524    -0.73500
O58         O  0.59504787  0.58748888  0.76604957    -0.73500
O59         O  0.57318796  0.60321472  0.79992373    -0.73600
O60         O  0.61277747  0.64743669  0.76090691    -0.73600
O61         O  0.65906691  0.63617998  0.77293531    -0.73600
O62         O  0.61881248  0.59208249  0.81279220    -0.73500
O63         O  0.64087078  0.57675268  0.77876730    -0.73500
O64         O  0.63812153  0.65128720  0.80700705    -0.73600
Ni65       Ni  0.59159095  0.62557340  0.78002267     1.25400
Ni66       Ni  0.64086134  0.61361417  0.79328947     1.25400
C67         C  0.61495382  0.66962958  0.80563333     0.88700
C68         C  0.61869680  0.56962913  0.76776144     0.88600
C69         C  0.58902270  0.59056492  0.81285632     0.88600
C70         C  0.64234413  0.64983750  0.76068264     0.88800
O71         O  0.44074401  0.58575261  0.92755259    -0.73500
O72         O  0.37347161  0.59182982  0.96251421    -0.73500
O73         O  0.42949226  0.56183186  0.96132958    -0.73600
O74         O  0.38554810  0.61578934  0.92853625    -0.73600
O75         O  0.36264935  0.57480127  0.91533310    -0.73600
O76         O  0.40721963  0.52075409  0.94788412    -0.73500
O77         O  0.35131510  0.55026244  0.94949839    -0.73500
O78         O  0.41770354  0.54498203  0.91427463    -0.73600
Ni79       Ni  0.40800602  0.59026910  0.94553064     1.25400
Ni80       Ni  0.38372934  0.54627860  0.93136519     1.25400
C81         C  0.44052298  0.56408439  0.91529367     0.88700
C82         C  0.35108310  0.57214605  0.96159414     0.88600
C83         C  0.42705741  0.53236563  0.95922035     0.88600
C84         C  0.36760000  0.60415828  0.91615340     0.88800
O85         O  0.35010917  0.75893852  0.80251151    -0.73500
O86         O  0.34819365  0.82227557  0.76525254    -0.73500
O87         O  0.37270296  0.81716171  0.79954949    -0.73600
O88         O  0.32598570  0.76373330  0.76823867    -0.73600
O89         O  0.28197745  0.78210296  0.78022315    -0.73600
O90         O  0.32925591  0.83554232  0.81229215    -0.73500
O91         O  0.30467561  0.84102156  0.77764431    -0.73500
O92         O  0.30617376  0.77718046  0.81465283    -0.73600
Ni93       Ni  0.35075601  0.78995392  0.78342291     1.25400
Ni94       Ni  0.30389572  0.80971698  0.79658470     1.25400
C95         C  0.32847192  0.75756636  0.81477040     0.88700
C96         C  0.32624107  0.84229138  0.76534718     0.88600
C97         C  0.35899445  0.83457518  0.81139309     0.88600
C98         C  0.29637068  0.76335934  0.76936356     0.88800
O99         O  0.52217973  0.85975422  0.91684463    -0.73500
O100        O  0.59719569  0.85366643  0.94526423    -0.73500
O101        O  0.54255831  0.88498582  0.94881718    -0.73600
O102        O  0.57605563  0.82846352  0.91322773    -0.73600
O103        O  0.59633017  0.86791943  0.89721834    -0.73600
O104        O  0.56237161  0.92480372  0.93293358    -0.73500
O105        O  0.61725168  0.89346703  0.92950135    -0.73500
O106        O  0.54250108  0.89928361  0.90094740    -0.73600
Ni107      Ni  0.55889462  0.85534274  0.93165611     1.25400
Ni108      Ni  0.58047821  0.89780774  0.91465795     1.25400
C109        C  0.51998743  0.88046021  0.90413974     0.88700
C110        C  0.61985388  0.87227680  0.94190287     0.88600
C111        C  0.54569194  0.91426614  0.94632087     0.88600
C112        C  0.59102714  0.83875842  0.89912030     0.88800
O113        O  0.56805275  0.34552741  0.05141456    -0.73500
O114        O  0.64414255  0.34121271  0.02326546    -0.73500
O115        O  0.62433370  0.31847997  0.05602707    -0.73600
O116        O  0.58700938  0.36802182  0.01857830    -0.73600
O117        O  0.60411912  0.41104792  0.03258700    -0.73600
O118        O  0.64169391  0.36101353  0.07037507    -0.73500
O119        O  0.66094771  0.38409350  0.03745338    -0.73500
O120        O  0.58564483  0.38822807  0.06545596    -0.73600
Ni121      Ni  0.60539275  0.34179948  0.03675005     1.25400
Ni122      Ni  0.62383463  0.38762015  0.05190920     1.25400
C123        C  0.56415005  0.36800368  0.06292089     0.88700
C124        C  0.66547800  0.36160103  0.02612086     0.88600
C125        C  0.63897117  0.33137712  0.06944003     0.88600
C126        C  0.58761026  0.39762834  0.02009805     0.88800
O127        O  0.35184357  0.30650245  0.16690631    -0.73500
O128        O  0.35589900  0.38514749  0.19194085    -0.73500
O129        O  0.32236969  0.33212531  0.19616709    -0.73600
O130        O  0.38566312  0.35901790  0.16273872    -0.73600
O131        O  0.34976376  0.37709980  0.14330362    -0.73600
O132        O  0.28587689  0.35064297  0.17729855    -0.73500
O133        O  0.31989820  0.40376591  0.17281373    -0.73500
O134        O  0.31522435  0.32522628  0.14818029    -0.73600
Ni135      Ni  0.35522677  0.34517652  0.18014462     1.25400
Ni136      Ni  0.31643436  0.36506948  0.15975487     1.25400
C137        C  0.33247593  0.30285334  0.15355013     0.88700
C138        C  0.33847421  0.40745164  0.18653385     0.88600
C139        C  0.29374223  0.33559175  0.19190807     0.88600
C140        C  0.37826393  0.37155305  0.14727571     0.88800
O141        O  0.64176063  0.17139106  0.17802250    -0.73500
O142        O  0.62699928  0.09376807  0.20286239    -0.73500
O143        O  0.66631737  0.14217752  0.20763959    -0.73600
O144        O  0.60159065  0.12343632  0.17329051    -0.73600
O145        O  0.63578087  0.10121782  0.15417829    -0.73600
O146        O  0.70127495  0.11953995  0.18922805    -0.73500
O147        O  0.66118099  0.07114439  0.18399144    -0.73500
O148        O  0.67645537  0.14819983  0.15969987    -0.73600
Ni149      Ni  0.63291739  0.13341353  0.19111466     1.25400
Ni150      Ni  0.66982882  0.10901591  0.17113059     1.25400
C151        C  0.66185453  0.17254199  0.16482868     0.88700
C152        C  0.64214813  0.06965437  0.19766159     0.88600
C153        C  0.69447832  0.13495258  0.20396939     0.88600
C154        C  0.60793743  0.11002499  0.15787443     0.88800
O155        O  0.42395489  0.11407501  0.05419314    -0.73500
O156        O  0.35261850  0.10634118  0.02216556    -0.73500
O157        O  0.36520038  0.13627517  0.05447406    -0.73600
O158        O  0.41178691  0.08447783  0.02179009    -0.73600
O159        O  0.39501963  0.04252201  0.03700395    -0.73600
O160        O  0.35077792  0.09492922  0.07108010    -0.73500
O161        O  0.33652723  0.06558174  0.03863092    -0.73500
O162        O  0.40880759  0.07166385  0.06943585    -0.73600
Ni163      Ni  0.38887572  0.11175815  0.03756010     1.25400
Ni164      Ni  0.37215258  0.06716652  0.05455756     1.25400
C165        C  0.42818515  0.09404655  0.06714102     0.88700
C166        C  0.33261413  0.08472921  0.02522092     0.88600
C167        C  0.35124215  0.12437739  0.06848684     0.88600
C168        C  0.41133231  0.05501574  0.02406949     0.88800
O169        O  0.87879215  0.28029849  0.30938421    -0.73500
O170        O  0.86911430  0.34745021  0.27483113    -0.73500
O171        O  0.89686900  0.34032767  0.30832209    -0.73600
O172        O  0.85186854  0.28659703  0.27592945    -0.73600
O173        O  0.80747234  0.30076791  0.28941917    -0.73600
O174        O  0.85326775  0.35303951  0.32322990    -0.73500
O175        O  0.82580263  0.36154486  0.28955617    -0.73500
O176        O  0.83417549  0.29346494  0.32294531    -0.73600
Ni177      Ni  0.87570200  0.31331257  0.29156276     1.25400
Ni178      Ni  0.82855084  0.32782022  0.30670224     1.25400
C179        C  0.85786807  0.27574820  0.32183425     0.88700
C180        C  0.84598142  0.36591484  0.27672364     0.88600
C181        C  0.88293859  0.35442919  0.32157831     0.88600
C182        C  0.82240149  0.28398239  0.27765598     0.88800
O183        O  0.05460287  0.35186571  0.42380230    -0.73500
O184        O  0.12743029  0.34689698  0.45430505    -0.73500
O185        O  0.07196041  0.37717529  0.45617283    -0.73600
O186        O  0.10970442  0.32126852  0.42182205    -0.73600
O187        O  0.13023631  0.36136536  0.40643104    -0.73600
O188        O  0.09249920  0.41728914  0.44072597    -0.73500
O189        O  0.14812928  0.38681708  0.43887738    -0.73500
O190        O  0.07554040  0.39189466  0.40862200    -0.73600
Ni191      Ni  0.09031435  0.34783521  0.43962942     1.25400
Ni192      Ni  0.11252001  0.39074964  0.42320616     1.25400
C193        C  0.05269432  0.37338640  0.41153759     0.88700
C194        C  0.15014221  0.36557242  0.45125735     0.88600
C195        C  0.07414788  0.40636668  0.45313737     0.88600
C196        C  0.12578476  0.33211924  0.40831259     0.88800
O197        O  0.12330761  0.17726011  0.29443182    -0.73500
O198        O  0.12115412  0.11074512  0.25881499    -0.73500
O199        O  0.10192874  0.11854274  0.29417749    -0.73600
O200        O  0.14178336  0.17069446  0.25879853    -0.73600
O201        O  0.18810325  0.15439861  0.26837186    -0.73600
O202        O  0.14781540  0.10288342  0.30493616    -0.73500
O203        O  0.16697532  0.09465801  0.26929527    -0.73500
O204        O  0.16974570  0.16114394  0.30393619    -0.73600
Ni205      Ni  0.12045144  0.14484100  0.27609413     1.25400
Ni206      Ni  0.16985892  0.12759220  0.28685933     1.25400
C207        C  0.14678312  0.17970125  0.30532173     0.88700
C208        C  0.14348235  0.09107293  0.25866071     0.88600
C209        C  0.11803140  0.10324982  0.30589465     0.88600
C210        C  0.17142097  0.17220611  0.25817034     0.88800
O211        O  0.97108630  0.08261927  0.42401347    -0.73500
O212        O  0.90015001  0.08166301  0.45636509    -0.73500
O213        O  0.95533819  0.05182626  0.45554530    -0.73600
O214        O  0.91608114  0.11239169  0.42512216    -0.73600
O215        O  0.89523134  0.07467399  0.40784677    -0.73600
O216        O  0.93435772  0.01386106  0.43849820    -0.73500
O217        O  0.87919780  0.04401077  0.43914692    -0.73500
O218        O  0.94986556  0.04454302  0.40721347    -0.73600
Ni219      Ni  0.93644167  0.08342902  0.44091577     1.25400
Ni220      Ni  0.91386274  0.04289272  0.42262759     1.25400
C221        C  0.97191455  0.06398721  0.41009002     0.88700
C222        C  0.87765618  0.06297506  0.45283002     0.88600
C223        C  0.95159858  0.02292318  0.45195626     0.88600
C224        C  0.89964285  0.10357034  0.41127359     0.88800
O225        O  0.62280607  0.27014126  0.67132567    -0.73500
O226        O  0.61403357  0.34394435  0.70091355    -0.73500
O227        O  0.59616788  0.32631711  0.66647864    -0.73600
O228        O  0.63998839  0.28704406  0.70574523    -0.73600
O229        O  0.68488945  0.30474179  0.69437957    -0.73600
O230        O  0.64065876  0.34412368  0.65456251    -0.73500
O231        O  0.65865006  0.36160723  0.68919793    -0.73500
O232        O  0.66752543  0.28854711  0.66010235    -0.73600
Ni233      Ni  0.61663683  0.30633223  0.68657365     1.25400
Ni234      Ni  0.66449867  0.32558823  0.67423038     1.25400
C235        C  0.64697877  0.26712405  0.66100439     0.88700
C236        C  0.63491441  0.36519616  0.69971235     0.88600
C237        C  0.61104055  0.34089964  0.65376795     0.88600
C238        C  0.66968726  0.28790692  0.70598652     0.88800
O239        O  0.45375335  0.34345126  0.54067575    -0.73500
O240        O  0.37559011  0.33488391  0.51534304    -0.73500
O241        O  0.42573986  0.37215313  0.51183290    -0.73600
O242        O  0.40390502  0.30558624  0.54419864    -0.73600
O243        O  0.38180401  0.33890647  0.56389109    -0.73600
O244        O  0.40513977  0.40616032  0.53177553    -0.73500
O245        O  0.35455459  0.36883238  0.53504567    -0.73500
O246        O  0.43179463  0.37682168  0.56039675    -0.73600
Ni247      Ni  0.41541612  0.33776068  0.52729744     1.25400
Ni248      Ni  0.39243456  0.37382432  0.54846002     1.25400
C249        C  0.45558537  0.36176060  0.55472682     0.88700
C250        C  0.35231017  0.35100828  0.52084932     0.88600
C251        C  0.41993393  0.40009089  0.51674362     0.88600
C252        C  0.38988842  0.31117857  0.55953830     0.88800
O253        O  0.37107037  0.12118699  0.65611757    -0.73500
O254        O  0.36084651  0.04698579  0.68457972    -0.73500
O255        O  0.39666713  0.06420050  0.65558120    -0.73600
O256        O  0.33532250  0.10412090  0.68508264    -0.73600
O257        O  0.29844748  0.08845319  0.66541424    -0.73600
O258        O  0.36024887  0.04795157  0.63577785    -0.73500
O259        O  0.32384247  0.03071383  0.66521032    -0.73500
O260        O  0.33452647  0.10508013  0.63642976    -0.73600
Ni261      Ni  0.36724110  0.08458280  0.67104396     1.25400
Ni262      Ni  0.32791590  0.06730040  0.65002791     1.25400
C263        C  0.35445721  0.12555272  0.64161369     0.88700
C264        C  0.34059539  0.02667933  0.67972465     0.88600
C265        C  0.38882521  0.05033728  0.64056731     0.88600
C266        C  0.30693707  0.10362680  0.67988160     0.88800
O267        O  0.58071535  0.07155616  0.54974223    -0.73500
O268        O  0.65666004  0.07823920  0.52219215    -0.73500
O269        O  0.60377257  0.04419219  0.51924062    -0.73600
O270        O  0.63317125  0.10591801  0.55276842    -0.73600
O271        O  0.65419971  0.06941394  0.57062182    -0.73600
O272        O  0.62452292  0.00721047  0.53693041    -0.73500
O273        O  0.67767588  0.04167155  0.54007279    -0.73500
O274        O  0.60204290  0.03482678  0.56731370    -0.73600
Ni275      Ni  0.61798325  0.07632920  0.53531647     1.25400
Ni276      Ni  0.64053745  0.03698053  0.55430559     1.25400
C277        C  0.57867743  0.05144653  0.56282006     0.88700
C278        C  0.67980430  0.06131974  0.52681022     0.88600
C279        C  0.60766079  0.01550885  0.52315582     0.88600
C280        C  0.64782963  0.09795368  0.56744885     0.88800
O281        O  0.11515105  0.22630007  0.78391224    -0.73500
O282        O  0.10868946  0.29819765  0.75246592    -0.73500
O283        O  0.13765310  0.24256703  0.75035489    -0.73600
O284        O  0.08516549  0.28122738  0.78595932    -0.73600
O285        O  0.12629225  0.30220674  0.79998088    -0.73600
O286        O  0.17939132  0.26312481  0.76401207    -0.73500
O287        O  0.15035794  0.31815099  0.76656896    -0.73500
O288        O  0.15652465  0.24790850  0.79736903    -0.73600
Ni289      Ni  0.11010671  0.26141444  0.76763549     1.25400
Ni290      Ni  0.15454363  0.28369865  0.78243782     1.25400
C291        C  0.13735796  0.22539053  0.79578597     0.88700
C292        C  0.12910180  0.31979957  0.75431022     0.88600
C293        C  0.16713867  0.24562031  0.75156004     0.88600
C294        C  0.09686932  0.29735080  0.79915229     0.88800
O295        O  0.95149911  0.32440143  0.91802632    -0.73500
O296        O  0.88613881  0.32900716  0.95449243    -0.73500
O297        O  0.89384960  0.30006135  0.92151856    -0.73600
O298        O  0.94464024  0.35308640  0.95105315    -0.73600
O299        O  0.92542279  0.39460828  0.93670728    -0.73600
O300        O  0.87441653  0.34107806  0.90676698    -0.73500
O301        O  0.86714574  0.37023331  0.93980898    -0.73500
O302        O  0.93180952  0.36565648  0.90363466    -0.73600
Ni303      Ni  0.91968973  0.32522483  0.93685830     1.25400
Ni304      Ni  0.89895688  0.36942272  0.92129995     1.25400
C305        C  0.95213292  0.34412336  0.90467550     0.88700
C306        C  0.86533111  0.35008629  0.95284722     0.88600
C307        C  0.87623301  0.31159906  0.90904274     0.88600
C308        C  0.94426660  0.38245399  0.94837984     0.88800
O309        O  0.84340746  0.14668822  0.80309082    -0.73500
O310        O  0.84198204  0.07621004  0.77067006    -0.73500
O311        O  0.81062456  0.13008829  0.77282669    -0.73600
O312        O  0.87530779  0.09305416  0.80092763    -0.73600
O313        O  0.84044954  0.07003094  0.81927548    -0.73600
O314        O  0.77499030  0.10839781  0.79138043    -0.73500
O315        O  0.80659700  0.05367597  0.78893874    -0.73500
O316        O  0.80850268  0.12380346  0.82148481    -0.73600
Ni317      Ni  0.84407442  0.11221563  0.78621388     1.25400
Ni318      Ni  0.80634421  0.08800160  0.80587443     1.25400
C319        C  0.82610994  0.14693921  0.81762391     0.88700
C320        C  0.82396412  0.05331976  0.77446275     0.88600
C321        C  0.78237356  0.12625028  0.77781914     0.88600
C322        C  0.86879304  0.07610511  0.81500902     0.88800
O323        O  0.04820054  0.07415386  0.91458079    -0.73500
O324        O  0.11817290  0.07966142  0.94717597    -0.73500
O325        O  0.10621463  0.09753168  0.91216676    -0.73600
O326        O  0.05933366  0.05599607  0.94960268    -0.73600
O327        O  0.07656263  0.01038136  0.93916226    -0.73600
O328        O  0.12315274  0.05208922  0.90128584    -0.73500
O329        O  0.13531441  0.03412676  0.93662073    -0.73500
O330        O  0.06518040  0.02864246  0.90389713    -0.73600
Ni331      Ni  0.08246526  0.07840452  0.93133595     1.25400
Ni332      Ni  0.10075477  0.02962471  0.91995489     1.25400
C333        C  0.04523072  0.05067477  0.90374300     0.88700
C334        C  0.13871951  0.05820096  0.94695670     0.88600
C335        C  0.12161993  0.08172683  0.90024638     0.88600
C336        C  0.05920536  0.02627627  0.95007487     0.88800
O337        O  0.35649705  0.68567813  0.30157008    -0.73500
O338        O  0.35702819  0.61843466  0.26666797    -0.73500
O339        O  0.33060911  0.67520914  0.26823767    -0.73600
O340        O  0.38351533  0.62927668  0.29998154    -0.73600
O341        O  0.34253136  0.60850755  0.31444431    -0.73600
O342        O  0.28903566  0.65537614  0.28268789    -0.73500
O343        O  0.31571704  0.59797427  0.28087747    -0.73500
O344        O  0.31538185  0.66484265  0.31579556    -0.73600
Ni345      Ni  0.35837999  0.65278330  0.28358797     1.25400
Ni346      Ni  0.31415297  0.63075333  0.29887936     1.25400
C347        C  0.33566494  0.68651977  0.31433354     0.88700
C348        C  0.33648256  0.59693532  0.26810362     0.88600
C349        C  0.30129519  0.67396827  0.27084768     0.88600
C350        C  0.37198370  0.61192219  0.31266501     0.88800
O351        O  0.55013134  0.59009846  0.41151097    -0.73500
O352        O  0.62250514  0.58456930  0.44174520    -0.73500
O353        O  0.60909808  0.61174875  0.40920664    -0.73600
O354        O  0.56332610  0.56296185  0.44399329    -0.73600
O355        O  0.57790557  0.51985206  0.42926200    -0.73600
O356        O  0.62233840  0.56887327  0.39366639    -0.73500
O357        O  0.63712341  0.54205868  0.42640681    -0.73500
O358        O  0.56378629  0.54663589  0.39680227    -0.73600
Ni359      Ni  0.58585010  0.58885210  0.42718717     1.25400
Ni360      Ni  0.60090941  0.54277356  0.41105024     1.25400
C361        C  0.54471379  0.56898510  0.39936692     0.88700
C362        C  0.64217360  0.56288009  0.43878341     0.88600
C363        C  0.62275808  0.59846061  0.39554037     0.88600
C364        C  0.56198422  0.53344348  0.44192909     0.88800
O365        O  0.44888069  0.84165938  0.42884891    -0.73500
O366        O  0.37891656  0.83837380  0.46212111    -0.73500
O367        O  0.39002593  0.81924275  0.42713820    -0.73600
O368        O  0.43832059  0.86068423  0.46387673    -0.73600
O369        O  0.42206343  0.90641505  0.45328482    -0.73600
O370        O  0.37405709  0.86477779  0.41600443    -0.73500
O371        O  0.36273418  0.88389851  0.45124098    -0.73500
O372        O  0.43270021  0.88734145  0.41819919    -0.73600
Ni373      Ni  0.41453976  0.83840204  0.44593893     1.25400
Ni374      Ni  0.39721653  0.88726754  0.43438055     1.25400
C375        C  0.45241929  0.86509723  0.41803893     0.88700
C376        C  0.35881461  0.86029483  0.46184843     0.88600
C377        C  0.37446684  0.83504412  0.41536951     0.88600
C378        C  0.43943199  0.89037489  0.46404075     0.88800
O379        O  0.62787249  0.77482737  0.29691953    -0.73500
O380        O  0.62197775  0.85109935  0.26987738    -0.73500
O381        O  0.65071682  0.79547122  0.26442804    -0.73600
O382        O  0.59889796  0.82969942  0.30246025    -0.73600
O383        O  0.64060292  0.84744937  0.31747357    -0.73600
O384        O  0.69271724  0.81292810  0.27925328    -0.73500
O385        O  0.66408013  0.86872681  0.28455158    -0.73500
O386        O  0.66974452  0.79271827  0.31168738    -0.73600
Ni387      Ni  0.62337698  0.81228378  0.28286481     1.25400
Ni388      Ni  0.66825751  0.83131304  0.29871596     1.25400
C389        C  0.64995097  0.77105131  0.30861846     0.88700
C390        C  0.64218094  0.87251522  0.27274393     0.88600
C391        C  0.68030189  0.79695304  0.26613606     0.88600
C392        C  0.61107785  0.84348015  0.31646469     0.88800
O393        O  0.10656828  0.78482801  0.17403903    -0.73500
O394        O  0.10508511  0.86525814  0.19766877    -0.73500
O395        O  0.07501340  0.83818534  0.16865543    -0.73600
O396        O  0.13578322  0.81155304  0.20321784    -0.73600
O397        O  0.17376975  0.82782070  0.18452459    -0.73600
O398        O  0.11227700  0.85431731  0.14939850    -0.73500
O399        O  0.14255230  0.88101722  0.17843553    -0.73500
O400        O  0.14434537  0.80172467  0.15539764    -0.73600
Ni401      Ni  0.10424295  0.82444972  0.18659283     1.25400
Ni402      Ni  0.14452544  0.84190558  0.16628008     1.25400
C403        C  0.12594659  0.78013188  0.16073134     0.88700
C404        C  0.12412654  0.88627239  0.19202345     0.88600
C405        C  0.08341685  0.84981766  0.15309112     0.88600
C406        C  0.16469766  0.81473440  0.19960128     0.88800
O407        O  0.91340505  0.84172227  0.04367736    -0.73500
O408        O  0.84250131  0.84153662  0.01090109    -0.73500
O409        O  0.89843556  0.87109523  0.01185266    -0.73600
O410        O  0.85855814  0.81142432  0.04267891    -0.73600
O411        O  0.83800928  0.84914628  0.05995550    -0.73600
O412        O  0.87721369  0.90963156  0.02814529    -0.73500
O413        O  0.82128092  0.87893055  0.02817238    -0.73500
O414        O  0.89202634  0.88031677  0.05982623    -0.73600
Ni415      Ni  0.87884596  0.84011514  0.02660360     1.25400
Ni416      Ni  0.85618546  0.88090517  0.04449217     1.25400
C417        C  0.91418136  0.86108239  0.05728553     0.88700
C418        C  0.81990037  0.86002526  0.01445107     0.88600
C419        C  0.89571905  0.90008423  0.01534638     0.88600
C420        C  0.84327231  0.82022195  0.05699546     0.88800
O421        O  0.04710812  0.57222448  0.05048640    -0.73500
O422        O  0.12643032  0.58579393  0.02717204    -0.73500
O423        O  0.07664373  0.54865504  0.02047329    -0.73600
O424        O  0.09649139  0.60943923  0.05716060    -0.73600
O425        O  0.11681191  0.57288036  0.07526490    -0.73600
O426        O  0.09710342  0.51167102  0.03825942    -0.73500
O427        O  0.14703100  0.54931590  0.04520842    -0.73500
O428        O  0.06773695  0.53529750  0.06818531    -0.73600
Ni429      Ni  0.08602663  0.58031775  0.03816653     1.25400
Ni430      Ni  0.10805138  0.54097327  0.05731526     1.25400
C431        C  0.04432637  0.55158284  0.06323845     0.88700
C432        C  0.14993302  0.56988340  0.03243381     0.88600
C433        C  0.08254597  0.52002885  0.02358248     0.88600
C434        C  0.10925604  0.60125129  0.07243049     0.88800
O435        O  0.85432170  0.64631874  0.16289181    -0.73500
O436        O  0.85557778  0.57684168  0.19652066    -0.73500
O437        O  0.88054406  0.58925297  0.16294695    -0.73600
O438        O  0.83004956  0.63483861  0.19662024    -0.73600
O439        O  0.78709721  0.61618690  0.18336874    -0.73600
O440        O  0.83845995  0.56984608  0.14905458    -0.73500
O441        O  0.81278561  0.55806058  0.18311215    -0.73500
O442        O  0.81192494  0.62659906  0.14959513    -0.73600
Ni443      Ni  0.85657854  0.61237914  0.18029146     1.25400
Ni444      Ni  0.81102701  0.59181527  0.16588057     1.25400
C445        C  0.83268267  0.64785885  0.15066670     0.88700
C446        C  0.83454486  0.55573684  0.19512062     0.88600
C447        C  0.86814362  0.57266799  0.15019941     0.88600
C448        C  0.80046819  0.63459500  0.19496541     0.88800
C449        C  0.98129127  0.52003165  0.09527367    -0.27300
C450        C  0.95926076  0.54398832  0.09465893     0.06300
C451        C  0.96410793  0.56891189  0.08235112     0.26000
C452        C  0.99111270  0.57041307  0.07152010    -0.11800
C453        C  0.01401492  0.54732367  0.07285983    -0.25700
C454        C  0.00835355  0.52153207  0.08447107     0.36800
C455        C  0.93391110  0.54522576  0.10868090     0.06300
F456        F  0.94394246  0.59305740  0.08182544    -0.19500
H457        H  0.99477178  0.59053794  0.06277160     0.16200
F458        F  0.02924646  0.49810007  0.08579733    -0.23200
H459        H  0.97798996  0.50061315  0.10462860     0.18000
C460        C  0.90284926  0.55104558  0.10368121     0.26000
C461        C  0.88054616  0.55743216  0.11741390    -0.11700
C462        C  0.88902467  0.55841885  0.13625194    -0.25800
C463        C  0.91956513  0.55037372  0.14124015     0.36900
C464        C  0.94163687  0.54370632  0.12758480    -0.27400
F465        F  0.89437200  0.55166706  0.08553135    -0.19500
H466        H  0.85720813  0.56359950  0.11323876     0.16200
F467        F  0.92851735  0.55039731  0.15932320    -0.23200
H468        H  0.96535421  0.53918432  0.13178021     0.18000
C469        C  0.80949314  0.69872874  0.11000245    -0.27300
C470        C  0.82928344  0.72440506  0.11218023     0.06300
C471        C  0.84972329  0.72527521  0.12741894     0.26000
C472        C  0.85071508  0.70042859  0.13994949    -0.11800
C473        C  0.83130141  0.67437007  0.13754653    -0.25700
C474        C  0.81043256  0.67395574  0.12244294     0.36800
C475        C  0.82953579  0.74920719  0.09791365     0.06300
F476        F  0.86951975  0.74958192  0.12982056    -0.19500
H477        H  0.86685939  0.70151163  0.15145366     0.16200
F478        F  0.79121029  0.64940124  0.11936619    -0.23200
H479        H  0.79337335  0.69772658  0.09847732     0.18000
C480        C  0.83282970  0.74153347  0.07901706     0.26000
C481        C  0.83500550  0.76487364  0.06565883    -0.11700
C482        C  0.83414267  0.79638659  0.07079775    -0.25800
C483        C  0.82950504  0.80408463  0.08963799     0.36900
C484        C  0.82725776  0.78061896  0.10304681    -0.27400
F485        F  0.83577906  0.71148092  0.07353921    -0.19500
H486        H  0.83874043  0.75821234  0.05131516     0.16200
F487        F  0.82905473  0.83417489  0.09529962    -0.23200
H488        H  0.82435726  0.78698545  0.11750336     0.18000
C489        C  0.04362325  0.86636611  0.10713139    -0.27300
C490        C  0.01239656  0.86128618  0.11188283     0.06300
C491        C  0.00452238  0.85461613  0.13038342     0.26000
C492        C  0.02769907  0.85225893  0.14381178    -0.11800
C493        C  0.05919864  0.85648432  0.13907241    -0.25700
C494        C  0.06690267  0.86422012  0.12060256     0.36800
C495        C  0.98814778  0.86207926  0.09744048     0.06300
F496        F  0.97453671  0.84902550  0.13530977    -0.19500
H497        H  0.02094227  0.84623808  0.15785045     0.16200
F498        F  0.09689091  0.86873021  0.11536221    -0.23200
H499        H  0.04995911  0.87171826  0.09292336     0.18000
C500        C  0.96328514  0.88286502  0.09890067     0.26000
C501        C  0.93977139  0.88259811  0.08561083    -0.11700
C502        C  0.94038795  0.86145197  0.07064090    -0.25800
C503        C  0.96556184  0.84076800  0.06913826     0.36900
C504        C  0.98930408  0.84130243  0.08240524    -0.27400
F505        F  0.96183886  0.90354379  0.11314754    -0.19500
H506        H  0.92084133  0.89889770  0.08721339     0.16200
F507        F  0.96711912  0.81976140  0.05508938    -0.23200
H508        H  0.00832051  0.82499417  0.08118935     0.18000
C509        C  0.12342366  0.64030597  0.11914349    -0.27300
C510        C  0.12049166  0.67166927  0.11427162     0.06300
C511        C  0.11466443  0.67968334  0.09572473     0.26000
C512        C  0.11159732  0.65663599  0.08224837    -0.11800
C513        C  0.11447443  0.62509704  0.08694338    -0.25700
C514        C  0.12063905  0.61707872  0.10557539     0.36800
C515        C  0.12420520  0.69644840  0.12823706     0.06300
F516        F  0.11139819  0.70989712  0.09071449    -0.19500
H517        H  0.10680653  0.66358160  0.06808822     0.16200
F518        F  0.12333074  0.58692342  0.11078927    -0.23200
H519        H  0.12807110  0.63388633  0.13341076     0.18000
C520        C  0.10215469  0.70083388  0.14240335     0.26000
C521        C  0.10345907  0.72749316  0.15359245    -0.11700
C522        C  0.12684557  0.74996108  0.15078337    -0.25800
C523        C  0.15003450  0.74423007  0.13730131     0.36900
C524        C  0.14849248  0.71783807  0.12612759    -0.27400
F525        F  0.07839359  0.68034015  0.14465766    -0.19500
H526        H  0.08547837  0.73113942  0.16389629     0.16200
F527        F  0.17378358  0.76452594  0.13439577    -0.23200
H528        H  0.16578159  0.71454271  0.11535055     0.18000
C529        C  0.73407793  0.67946614  0.21760065    -0.27300
C530        C  0.74966765  0.70658430  0.22351591     0.06300
C531        C  0.78182170  0.70905958  0.22038140     0.26000
C532        C  0.79792287  0.68498003  0.21174583    -0.11800
C533        C  0.78246460  0.65798270  0.20562636    -0.25700
C534        C  0.75021686  0.65545658  0.20857903     0.36800
C535        C  0.73276791  0.73180871  0.23343298     0.06300
F536        F  0.79765099  0.73523932  0.22512423    -0.19500
H537        H  0.82259448  0.68803790  0.20930301     0.16200
F538        F  0.73436330  0.62980989  0.20294419    -0.23200
H539        H  0.70940033  0.67673002  0.22011888     0.18000
C540        C  0.70408474  0.74302575  0.22696867     0.26000
C541        C  0.68783876  0.76553418  0.23713193    -0.11700
C542        C  0.70001258  0.77763794  0.25378267    -0.25800
C543        C  0.72937893  0.76742112  0.25976251     0.36900
C544        C  0.74530694  0.74459814  0.24977954    -0.27400
F545        F  0.69170715  0.73222381  0.21086091    -0.19500
H546        H  0.66532993  0.77299989  0.23217414     0.16200
F547        F  0.74193305  0.77792242  0.27589562    -0.23200
H548        H  0.76711896  0.73613523  0.25523663     0.18000
C549        C  0.52680700  0.84453831  0.39199730    -0.27300
C550        C  0.52700393  0.86678440  0.37772403     0.06300
C551        C  0.50383892  0.88976116  0.37768190     0.26000
C552        C  0.48026617  0.88950900  0.39110219    -0.11800
C553        C  0.47917769  0.86640027  0.40490333    -0.25700
C554        C  0.50329910  0.84434253  0.40549880     0.36800
C555        C  0.54962569  0.86423980  0.36210862     0.06300
F556        F  0.50379177  0.91232739  0.36452421    -0.19500
H557        H  0.46239185  0.90710283  0.39038045     0.16200
F558        F  0.50400700  0.82220180  0.41889523    -0.23200
H559        H  0.54426021  0.82648973  0.39231179     0.18000
C560        C  0.58153859  0.85938287  0.36525922     0.26000
C561        C  0.60181177  0.85424917  0.35028157    -0.11700
C562        C  0.59060148  0.85348318  0.33194383    -0.25800
C563        C  0.55891204  0.85943982  0.32880192     0.36900
C564        C  0.53877035  0.86473017  0.34371567    -0.27400
F565        F  0.59306392  0.85925268  0.38280200    -0.19500
H566        H  0.62607073  0.84961694  0.35309462     0.16200
F567        F  0.54719759  0.85964957  0.31130266    -0.23200
H568        H  0.51430530  0.86808558  0.34088034     0.18000
C569        C  0.64384209  0.63264005  0.34910549    -0.27300
C570        C  0.65535419  0.66189374  0.35447529     0.06300
C571        C  0.66040680  0.66804274  0.37344166     0.26000
C572        C  0.65160412  0.64623283  0.38677866    -0.11800
C573        C  0.63789894  0.61799071  0.38143807    -0.25700
C574        C  0.63516941  0.61076350  0.36246631     0.36800
C575        C  0.65639288  0.68748218  0.34081732     0.06300
F576        F  0.67098204  0.69619039  0.37922601    -0.19500
H577        H  0.65396610  0.65209953  0.40135702     0.16200
F578        F  0.62135887  0.58393173  0.35686215    -0.23200
H579        H  0.63973179  0.62751947  0.33456991     0.18000
C580        C  0.68186343  0.70791335  0.33966332     0.26000
C581        C  0.67987333  0.73475722  0.32883886    -0.11700
C582        C  0.65262478  0.74145568  0.31885210    -0.25800
C583        C  0.62789852  0.71997955  0.31919754     0.36900
C584        C  0.62982656  0.69339038  0.33013164    -0.27400
F585        F  0.70842699  0.70214869  0.34917509    -0.19500
H586        H  0.69954944  0.75052493  0.32848700     0.16200
F587        F  0.60122960  0.72522623  0.30969179    -0.23200
H588        H  0.60982960  0.67806242  0.33091565     0.18000
C589        C  0.19825596  0.76856615  0.23919741    -0.27300
C590        C  0.22972897  0.76740157  0.23426816     0.06300
C591        C  0.24045295  0.78516526  0.21915324     0.26000
C592        C  0.21942832  0.80203973  0.20840242    -0.11800
C593        C  0.18752419  0.80152915  0.21266192    -0.25700
C594        C  0.17736056  0.78557975  0.22867436     0.36800
C595        C  0.24995883  0.74489134  0.24377789     0.06300
F596        F  0.27103784  0.78549115  0.21448390    -0.19500
H597        H  0.22796670  0.81445915  0.19635391     0.16200
F598        F  0.14695536  0.78485402  0.23373370    -0.23200
H599        H  0.18939175  0.75485183  0.25064839     0.18000
C600        C  0.24902522  0.74182703  0.26323426     0.26000
C601        C  0.26457737  0.71745930  0.27182792    -0.11700
C602        C  0.28196642  0.69646084  0.26121988    -0.25800
C603        C  0.28396821  0.70005328  0.24191362     0.36900
C604        C  0.26764376  0.72386488  0.23321636    -0.27400
F605        F  0.23335850  0.76256901  0.27392672    -0.19500
H606        H  0.26394504  0.71557966  0.28682934     0.16200
F607        F  0.30122381  0.68020823  0.23150327    -0.23200
H608        H  0.26820766  0.72539792  0.21821427     0.18000
C609        C  0.40777176  0.58374187  0.35735835    -0.27300
C610        C  0.43874021  0.58006899  0.35172317     0.06300
C611        C  0.44677400  0.58344329  0.33296225     0.26000
C612        C  0.42431202  0.59196075  0.32009702    -0.11800
C613        C  0.39349796  0.59710532  0.32574450    -0.25700
C614        C  0.38508925  0.59197407  0.34440881     0.36800
C615        C  0.46337024  0.57569157  0.36548709     0.06300
F616        F  0.47675931  0.58053059  0.32732735    -0.19500
H617        H  0.43130326  0.59578238  0.30581723     0.16200
F618        F  0.35561665  0.59709492  0.35039840    -0.23200
H619        H  0.40146248  0.58128179  0.37185418     0.18000
C620        C  0.47185291  0.60028092  0.37725024     0.26000
C621        C  0.49802310  0.59770010  0.38851178    -0.11700
C622        C  0.51612341  0.57058327  0.38814400    -0.25800
C623        C  0.50680534  0.54553280  0.37676439     0.36900
C624        C  0.48069646  0.54826138  0.36544828    -0.27400
F625        F  0.45577593  0.62735848  0.37709654    -0.19500
H626        H  0.50457655  0.61730081  0.39712196     0.16200
F627        F  0.52298936  0.51853826  0.37635530    -0.23200
H628        H  0.47432828  0.52923604  0.35633316     0.18000
C629        C  0.34534743  0.81228546  0.36790035    -0.27300
C630        C  0.33784770  0.78091302  0.37087504     0.06300
C631        C  0.33837980  0.76891970  0.38900975     0.26000
C632        C  0.34841191  0.78749906  0.40369075    -0.11800
C633        C  0.35795808  0.81826444  0.40055217    -0.25700
C634        C  0.35518730  0.83099781  0.38265260     0.36800
C635        C  0.33471017  0.75960359  0.35494627     0.06300
F636        F  0.33197456  0.73850370  0.39229374    -0.19500
H637        H  0.35024096  0.77730904  0.41740185     0.16200
F638        F  0.36453077  0.86055923  0.37908558    -0.23200
H639        H  0.34518073  0.82177706  0.35396590     0.18000
C640        C  0.30945784  0.73902868  0.35350763     0.26000
C641        C  0.30959294  0.71575579  0.33996818    -0.11700
C642        C  0.33489894  0.71265969  0.32766997    -0.25800
C643        C  0.35948066  0.73427701  0.32865045     0.36900
C644        C  0.35926110  0.75749824  0.34217078    -0.27400
F645        F  0.28502611  0.74109156  0.36541226    -0.19500
H646        H  0.29008743  0.69980742  0.33934806     0.16200
F647        F  0.38439879  0.73231711  0.31712220    -0.23200
H648        H  0.37907090  0.77302173  0.34322512     0.18000
C649        C  0.01840384  0.96328985  0.97752218    -0.27300
C650        C  0.98934526  0.97712566  0.98079368     0.06300
C651        C  0.98475955  0.00817419  0.97551023     0.26000
C652        C  0.00843287  0.02456975  0.96650213    -0.11800
C653        C  0.03688460  0.01019985  0.96233877    -0.25700
C654        C  0.04191312  0.97952150  0.96821719     0.36800
C655        C  0.96358105  0.95858518  0.98887502     0.06300
F656        F  0.95679802  0.02206593  0.97801230    -0.19500
H657        H  0.00383594  0.04803605  0.96186545     0.16200
F658        F  0.06930368  0.96507908  0.96472520    -0.23200
H659        H  0.02265859  0.93959128  0.98183885     0.18000
C660        C  0.95634947  0.92912520  0.98160813     0.26000
C661        C  0.93294684  0.91113678  0.98966313    -0.11700
C662        C  0.91618870  0.92199288  0.00515728    -0.25800
C663        C  0.92256940  0.95204126  0.01198351     0.36900
C664        C  0.94611443  0.97008605  0.00388967    -0.27400
F665        F  0.97197388  0.91763048  0.96670976    -0.29100
H666        H  0.92853285  0.88820179  0.98400972     0.16200
F667        F  0.90729345  0.96341580  0.02702752    -0.23200
H668        H  0.95137927  0.99269780  0.00974437     0.18000
C669        C  0.91356265  0.04190739  0.85553223    -0.27300
C670        C  0.94359041  0.05301240  0.85174834     0.06300
C671        C  0.94936948  0.06910276  0.83519243     0.26000
C672        C  0.92513600  0.07506138  0.82289685    -0.11800
C673        C  0.89460820  0.06519226  0.82691138    -0.25700
C674        C  0.88919417  0.04771668  0.84316841     0.36800
C675        C  0.96838412  0.05020102  0.86569848     0.06300
F676        F  0.97812743  0.08061130  0.83144005    -0.19500
H677        H  0.93017233  0.08856513  0.81057146     0.16200
F678        F  0.86031686  0.03714009  0.84748338    -0.23200
H679        H  0.90890236  0.02940300  0.86828513     0.18000
C680        C  0.96750908  0.06849675  0.88182687     0.26000
C681        C  0.99239812  0.06816320  0.89423562    -0.11700
C682        C  0.01848078  0.04938343  0.89084678    -0.25800
C683        C  0.01896368  0.03054295  0.87479467     0.36900
C684        C  0.99413968  0.03120255  0.86227541    -0.27400
F685        F  0.94309673  0.08760655  0.88517334    -0.19500
H686        H  0.99135981  0.08287483  0.90644369     0.16200
F687        F  0.04383455  0.01241724  0.87078898    -0.23200
H688        H  0.99518003  0.01726197  0.84974483     0.18000
C689        C  0.98549167  0.45215316  0.96947916    -0.27300
C690        C  0.01221264  0.43819443  0.97687450     0.06300
C691        C  0.01632786  0.40605004  0.97480480     0.26000
C692        C  0.99388148  0.38820252  0.96573058    -0.11800
C693        C  0.96700220  0.40203273  0.95841237    -0.25700
C694        C  0.96309349  0.43432453  0.96023929     0.36800
C695        C  0.03459253  0.45701451  0.98771140     0.06300
F696        F  0.04226459  0.39196661  0.98133653    -0.19500
H697        H  0.99781103  0.36348493  0.96421286     0.16200
F698        F  0.93740384  0.44858508  0.95351012    -0.23200
H699        H  0.98164243  0.47684490  0.97121736     0.18000
C700        C  0.04616484  0.48526855  0.98074978     0.26000
C701        C  0.06367576  0.50487905  0.99216120    -0.11700
C702        C  0.07015728  0.49651830  0.01061179    -0.25800
C703        C  0.06033372  0.46729390  0.01715901     0.36900
C704        C  0.04259848  0.44782722  0.00578464    -0.27400
F705        F  0.03984882  0.49424478  0.96308641    -0.19500
H706        H  0.07120825  0.52717260  0.98678254     0.16200
F707        F  0.06554740  0.45860013  0.03500399    -0.23200
H708        H  0.03367985  0.42626362  0.01146647     0.18000
C709        C  0.84485455  0.23758880  0.88792013    -0.27300
C710        C  0.83765731  0.24753085  0.86991811     0.06300
C711        C  0.83912519  0.27933106  0.86564792     0.26000
C712        C  0.84977375  0.30057608  0.87891445    -0.11800
C713        C  0.85931509  0.29029250  0.89652147    -0.25700
C714        C  0.85568805  0.25867922  0.90113389     0.36800
C715        C  0.83197656  0.22406297  0.85537553     0.06300
F716        F  0.83133862  0.28961641  0.84846240    -0.19500
H717        H  0.85215020  0.32477503  0.87505178     0.16200
F718        F  0.86378306  0.24783434  0.91814803    -0.23200
H719        H  0.84372325  0.21314651  0.89144259     0.18000
C720        C  0.85174335  0.22233491  0.83985927     0.26000
C721        C  0.84910212  0.19763833  0.82738927    -0.11700
C722        C  0.82687864  0.17409574  0.83023199    -0.25800
C723        C  0.80643701  0.17641517  0.84552603     0.36900
C724        C  0.80915256  0.20116117  0.85799830    -0.27400
F725        F  0.87486416  0.24349085  0.83736955    -0.19500
H726        H  0.86518664  0.19647910  0.81583127     0.16200
F727        F  0.78420865  0.15458351  0.84871509    -0.23200
H728        H  0.79388086  0.20212960  0.86995864     0.18000
C729        C  0.02541566  0.31018697  0.82906415    -0.27300
C730        C  0.03787336  0.32683912  0.84404033     0.06300
C731        C  0.06938844  0.33532469  0.84379772     0.26000
C732        C  0.08829959  0.32667642  0.82883247    -0.11800
C733        C  0.07609420  0.30919718  0.81398409    -0.25700
C734        C  0.04420230  0.30130631  0.81419289     0.36800
C735        C  0.01781777  0.33401566  0.86009774     0.06300
F736        F  0.08181116  0.35191220  0.85803275    -0.19500
H737        H  0.11264849  0.33312087  0.82907456     0.16200
F738        F  0.03116396  0.28414516  0.80038743    -0.23200
H739        H  0.00116621  0.30328849  0.82915158     0.18000
C740        C  0.99080156  0.35165690  0.85772431     0.26000
C741        C  0.97016018  0.35564794  0.87250033    -0.11700
C742        C  0.97581110  0.34167336  0.88981999    -0.25800
C743        C  0.00336108  0.32464235  0.89230014     0.36900
C744        C  0.02424610  0.32103448  0.87753185    -0.27400
F745        F  0.98418680  0.36460741  0.84100977    -0.19500
H746        H  0.94918208  0.36888924  0.87017109     0.16200
F747        F  0.01002747  0.31128430  0.90888130    -0.23200
H748        H  0.04495289  0.30720717  0.87950608     0.18000
C749        C  0.14420626  0.10179582  0.85121434    -0.27300
C750        C  0.14764323  0.13406178  0.85279745     0.06300
C751        C  0.14742610  0.14807495  0.87043456     0.26000
C752        C  0.14156662  0.13021672  0.88613901    -0.11800
C753        C  0.13576563  0.09823110  0.88449204    -0.25700
C754        C  0.13856963  0.08381151  0.86699328     0.36800
C755        C  0.14765715  0.15362058  0.83612620     0.06300
F756        F  0.15013679  0.17937224  0.87233034    -0.19500
H757        H  0.13967482  0.14176117  0.89948464     0.16200
F758        F  0.13317416  0.05292187  0.86486091    -0.23200
H759        H  0.14443687  0.09079377  0.83766171     0.18000
C760        C  0.17120900  0.17564097  0.83340720     0.26000
C761        C  0.16816632  0.19786440  0.81959084    -0.11700
C762        C  0.14145486  0.19874056  0.80833335    -0.25800
C763        C  0.11874010  0.17539653  0.81029156     0.36900
C764        C  0.12194812  0.15293481  0.82413973    -0.27400
F765        F  0.19653788  0.17642063  0.84462110    -0.19500
H766        H  0.18640395  0.21513833  0.81820336     0.16200
F767        F  0.09280456  0.17515868  0.79959300    -0.23200
H768        H  0.10351969  0.13604113  0.82619594     0.18000
C769        C  0.55271997  0.98080475  0.48822869    -0.27300
C770        C  0.54067092  0.95574286  0.49844450     0.06300
C771        C  0.55447650  0.94767176  0.51541773     0.26000
C772        C  0.57869856  0.96568640  0.52257591    -0.11800
C773        C  0.58921723  0.99216972  0.51301858    -0.25700
C774        C  0.57674586  0.99899277  0.49544756     0.36800
C775        C  0.51326688  0.93867210  0.49148566     0.06300
F776        F  0.54309263  0.92376384  0.52569792    -0.19500
H777        H  0.58754923  0.96025585  0.53625555     0.16200
F778        F  0.58679072  0.02402184  0.48563266    -0.23200
H779        H  0.54287045  0.98681775  0.47488728     0.18000
C780        C  0.48629176  0.95465776  0.48616883     0.26000
C781        C  0.46141329  0.93854739  0.47823299    -0.11700
C782        C  0.46297466  0.90625662  0.47557289    -0.25800
C783        C  0.48943321  0.89012271  0.48181504     0.36900
C784        C  0.51431510  0.90629907  0.48964794    -0.27400
F785        F  0.48415718  0.98589691  0.48845627    -0.19500
H786        H  0.44132211  0.95148121  0.47365535     0.16200
F787        F  0.49229457  0.85899954  0.47929257    -0.23200
H788        H  0.53495020  0.89365204  0.49361535     0.18000
C789        C  0.26980979  0.15135365  0.71780734    -0.27300
C790        C  0.24450386  0.16423890  0.70835835     0.06300
C791        C  0.23875264  0.15559344  0.68984082     0.26000
C792        C  0.25835886  0.13456609  0.68089912    -0.11800
C793        C  0.28417479  0.12229074  0.69021091    -0.25700
C794        C  0.28956813  0.13058837  0.70884164     0.36800
C795        C  0.22438204  0.18665492  0.71804294     0.06300
F796        F  0.21502813  0.16847282  0.68017028    -0.19500
H797        H  0.25410900  0.12892674  0.66645936     0.16200
F798        F  0.31399118  0.11877316  0.71838204    -0.23200
H799        H  0.27430029  0.15748361  0.73215227     0.18000
C800        C  0.19218910  0.18174849  0.71903569     0.26000
C801        C  0.17367114  0.20194146  0.72931020    -0.11700
C802        C  0.18692153  0.22712077  0.73900002    -0.25800
C803        C  0.21912531  0.23242201  0.73763128     0.36900
C804        C  0.23762450  0.21229070  0.72720396    -0.27400
F805        F  0.17886351  0.15650397  0.71092968    -0.19500
H806        H  0.14900705  0.19701694  0.73028031     0.16200
F807        F  0.23283352  0.25666962  0.74653791    -0.23200
H808        H  0.26245881  0.21644593  0.72647077     0.18000
C809        C  0.46870100  0.03146204  0.62303952    -0.27300
C810        C  0.46469661  0.03540752  0.60385653     0.06300
C811        C  0.43455791  0.03866590  0.59665824     0.26000
C812        C  0.40913644  0.04061539  0.60871950    -0.11800
C813        C  0.41359439  0.03954378  0.62804058    -0.25700
C814        C  0.44341896  0.03349616  0.63507125     0.36800
C815        C  0.49243210  0.03827391  0.59189757     0.06300
F816        F  0.42988454  0.04110621  0.57806982    -0.19500
H817        H  0.38633655  0.04513539  0.60299885     0.16200
F818        F  0.44841930  0.03120208  0.65364151    -0.23200
H819        H  0.49173076  0.02855739  0.62882535     0.18000
C820        C  0.49704414  0.06467954  0.58071367     0.26000
C821        C  0.52501357  0.06873460  0.57110594    -0.11700
C822        C  0.54891328  0.04676856  0.57269222    -0.25800
C823        C  0.54395091  0.02011415  0.58368515     0.36900
C824        C  0.51597646  0.01602750  0.59315201    -0.27400
F825        F  0.47520401  0.08730010  0.57982628    -0.19500
H826        H  0.52823619  0.08945544  0.56279245     0.16200
F827        F  0.56602748  0.99785971  0.58533508    -0.23200
H828        H  0.51281729  0.99559923  0.60173889     0.18000
C829        C  0.51203289  0.46752585  0.46025152    -0.27300
C830        C  0.49327654  0.48312025  0.47322120     0.06300
C831        C  0.49842570  0.51490893  0.47650154     0.26000
C832        C  0.52170094  0.53073724  0.46682535    -0.11800
C833        C  0.54014708  0.51531946  0.45357149    -0.25700
C834        C  0.53512604  0.48337847  0.45042407     0.36800
C835        C  0.46986047  0.46551934  0.48404035     0.06300
F836        F  0.48044984  0.53088927  0.48871131    -0.19500
H837        H  0.52472998  0.55535081  0.46943453     0.16200
F838        F  0.55203459  0.46744079  0.43765871    -0.23200
H839        H  0.50900718  0.44285513  0.45782953     0.18000
C840        C  0.45012483  0.44375887  0.47535099     0.26000
C841        C  0.43213189  0.42351883  0.48608701    -0.11700
C842        C  0.43287512  0.42538330  0.50553190    -0.25800
C843        C  0.45063876  0.44866098  0.51416525     0.36900
C844        C  0.46921695  0.46834869  0.50348118    -0.27400
F845        F  0.44900989  0.44141100  0.45654470    -0.19500
H846        H  0.41844435  0.40567225  0.47926536     0.16200
F847        F  0.45242081  0.45037061  0.53297413    -0.23200
H848        H  0.48453105  0.48454915  0.51051090     0.18000
C849        C  0.39692253  0.23406290  0.58435817    -0.27300
C850        C  0.37209149  0.23544636  0.59690330     0.06300
C851        C  0.35321085  0.26194872  0.59742304     0.26000
C852        C  0.35918058  0.28679467  0.58536431    -0.11800
C853        C  0.38371621  0.28519903  0.57246237    -0.25700
C854        C  0.40269097  0.25858182  0.57216483     0.36800
C855        C  0.36600383  0.20870496  0.60911292     0.06300
F856        F  0.32914810  0.26375213  0.60959540    -0.19500
H857        H  0.34436577  0.30706138  0.58591849     0.16200
F858        F  0.42724512  0.25643795  0.56035947    -0.23200
H859        H  0.41172198  0.21376213  0.58392525     0.18000
C860        C  0.34295097  0.18693552  0.60452289     0.26000
C861        C  0.33917265  0.16009017  0.61521438    -0.11700
C862        C  0.35829998  0.15456429  0.63069966    -0.25800
C863        C  0.38108609  0.17691562  0.63541441     0.36900
C864        C  0.38492471  0.20361083  0.62459815    -0.27400
F865        F  0.32475381  0.19124719  0.58936855    -0.19500
H866        H  0.32143077  0.14347023  0.61122166     0.16200
F867        F  0.40004694  0.17290540  0.65025887    -0.23200
H868        H  0.40296675  0.22020338  0.62816031     0.18000
C869        C  0.72951905  0.23253270  0.72509896    -0.27300
C870        C  0.71246875  0.21771509  0.73922583     0.06300
C871        C  0.68264712  0.22860946  0.74366521     0.26000
C872        C  0.66968187  0.25296672  0.73355570    -0.11800
C873        C  0.68615123  0.26692539  0.71884369    -0.25700
C874        C  0.71656045  0.25685212  0.71493971     0.36800
C875        C  0.72613895  0.19110308  0.74925937     0.06300
F876        F  0.66541931  0.21470416  0.75713541    -0.19500
H877        H  0.64617668  0.26010802  0.73679873     0.16200
F878        F  0.73313804  0.26911199  0.70063166    -0.23200
H879        H  0.75281372  0.22489516  0.72171685     0.18000
C880        C  0.74031402  0.16661928  0.73944348     0.26000
C881        C  0.75686218  0.14387281  0.74898781    -0.11700
C882        C  0.75877862  0.14475997  0.76840330    -0.25800
C883        C  0.74293523  0.16792012  0.77831961     0.36900
C884        C  0.72683878  0.19102388  0.76877392    -0.27400
F885        F  0.73891751  0.16520585  0.72061523    -0.19500
H886        H  0.76925226  0.12624710  0.74120099     0.16200
F887        F  0.74549863  0.16987584  0.79708958    -0.23200
H888        H  0.71637480  0.20980134  0.77659699     0.18000
C889        C  0.58740411  0.35969877  0.60436738    -0.27300
C890        C  0.55554676  0.36544898  0.60673712     0.06300
C891        C  0.54294227  0.36579708  0.62477592     0.26000
C892        C  0.56166405  0.35949061  0.64006582    -0.11800
C893        C  0.59331789  0.35274055  0.63774601    -0.25700
C894        C  0.60630169  0.35363177  0.61977260     0.36800
C895        C  0.53459825  0.36800370  0.59055442     0.06300
F896        F  0.51203604  0.37015370  0.62753667    -0.19500
H897        H  0.55108520  0.35876406  0.65373017     0.16200
F898        F  0.63665810  0.34657860  0.61694808    -0.23200
H899        H  0.59740742  0.35907322  0.59055262     0.18000
C900        C  0.51362586  0.39278688  0.58927731     0.26000
C901        C  0.48900860  0.39135302  0.57673560    -0.11700
C902        C  0.48499833  0.36533664  0.56512569    -0.25800
C903        C  0.50779747  0.34197161  0.56510986     0.36900
C904        C  0.53236615  0.34332729  0.57782011    -0.27400
F905        F  0.51604017  0.41762104  0.60085274    -0.19500
H906        H  0.47228539  0.41010021  0.57666950     0.16200
F907        F  0.50511898  0.31671891  0.55389665    -0.23200
H908        H  0.54843141  0.32405621  0.57856899     0.18000
C909        C  0.68343173  0.20755046  0.62913129    -0.27300
C910        C  0.65766945  0.18907895  0.62487151     0.06300
C911        C  0.62908596  0.19447489  0.63367302     0.26000
C912        C  0.62598454  0.21918027  0.64608656    -0.11800
C913        C  0.65131096  0.23893978  0.64966114    -0.25700
C914        C  0.68040563  0.23236463  0.64145668     0.36800
C915        C  0.65948988  0.16672578  0.60960325     0.06300
F916        F  0.60392843  0.17658632  0.62962843    -0.19500
H917        H  0.60346534  0.22359789  0.65227384     0.16200
F918        F  0.70579010  0.25026825  0.64494340    -0.23200
H919        H  0.70553575  0.20349753  0.62232852     0.18000
C920        C  0.64725845  0.17477498  0.59228325     0.26000
C921        C  0.64543914  0.15267686  0.57822324    -0.11700
C922        C  0.65554651  0.12208416  0.58129920    -0.25800
C923        C  0.66972537  0.11467250  0.59837925     0.36900
C924        C  0.67162900  0.13701329  0.61245985    -0.27400
F925        F  0.63596456  0.20373931  0.58925149    -0.19500
H926        H  0.63476156  0.15925593  0.56521764     0.16200
F927        F  0.68052349  0.08566483  0.60181019    -0.23200
H928        H  0.68142817  0.13084174  0.62578712     0.18000
C929        C  0.79543172  0.04858729  0.46962385    -0.27300
C930        C  0.79436272  0.06687862  0.48571858     0.06300
C931        C  0.82098564  0.08340244  0.49128352     0.26000
C932        C  0.84816088  0.08185318  0.48064384    -0.11800
C933        C  0.84921511  0.06366371  0.46438914    -0.25700
C934        C  0.82245387  0.04694470  0.45901226     0.36800
C935        C  0.76537152  0.06797129  0.49663232     0.06300
F936        F  0.82046339  0.10157080  0.50672154    -0.19500
H937        H  0.86831517  0.09503730  0.48508984     0.16200
F938        F  0.82202316  0.02932802  0.44335077    -0.23200
H939        H  0.77520722  0.03538333  0.46528533     0.18000
C940        C  0.73705350  0.07522673  0.48799548     0.26000
C941        C  0.70932530  0.07365361  0.49801647    -0.11700
C942        C  0.70937933  0.06442776  0.51669704    -0.25800
C943        C  0.73781991  0.05791086  0.52547032     0.36900
C944        C  0.76559252  0.05980015  0.51547905    -0.27400
F945        F  0.73623120  0.08366501  0.46983479    -0.19500
H946        H  0.68770453  0.07890294  0.49103081     0.16200
F947        F  0.73882570  0.04991015  0.54370107    -0.23200
H948        H  0.78721364  0.05403463  0.52231532     0.18000
C949        C  0.10627217  0.95613946  0.22264500    -0.27300
C950        C  0.13148535  0.97571259  0.21837327     0.06300
C951        C  0.15393575  0.96573872  0.20556701     0.26000
C952        C  0.15105471  0.93679306  0.19707318    -0.11800
C953        C  0.12590266  0.91697672  0.20126517    -0.25700
C954        C  0.10350834  0.92687828  0.21426245     0.36800
C955        C  0.13496226  0.00606195  0.22773068     0.06300
F956        F  0.17851109  0.98417263  0.20109180    -0.19500
H957        H  0.16883358  0.92983837  0.18725852     0.16200
F958        F  0.07897534  0.90849747  0.21884711    -0.23200
H959        H  0.08898313  0.96336743  0.23270372     0.18000
C960        C  0.11109931  0.02818990  0.22725026     0.26000
C961        C  0.11445973  0.05640276  0.23671197    -0.11700
C962        C  0.14163470  0.06293394  0.24684002    -0.25800
C963        C  0.16591985  0.04098104  0.24675558     0.36900
C964        C  0.16245548  0.01287833  0.23732278    -0.27400
F965        F  0.08463224  0.02254126  0.21757205    -0.19500
H966        H  0.09546161  0.07281209  0.23644742     0.16200
F967        F  0.19281488  0.04614628  0.25611919    -0.23200
H968        H  0.18108650  0.99605078  0.23783585     0.18000
C969        C  0.09532227  0.07992430  0.35457693    -0.27300
C970        C  0.06373033  0.07288705  0.35207919     0.06300
C971        C  0.05139540  0.07205089  0.33403479     0.26000
C972        C  0.07008791  0.07953308  0.31883820    -0.11800
C973        C  0.10135516  0.08804391  0.32133374    -0.25700
C974        C  0.11416160  0.08724006  0.33930388     0.36800
C975        C  0.04299017  0.06899806  0.36827336     0.06300
F976        F  0.02071930  0.06625778  0.33121967    -0.19500
H977        H  0.05964949  0.08025273  0.30516554     0.16200
F978        F  0.14407697  0.09596914  0.34231157    -0.23200
H979        H  0.10508980  0.08075736  0.36842345     0.18000
C980        C  0.02458750  0.04221469  0.37014937     0.26000
C981        C  0.00235474  0.04035927  0.38423990    -0.11700
C982        C  0.99799472  0.06519191  0.39669581    -0.25800
C983        C  0.01723833  0.09162709  0.39518464     0.36900
C984        C  0.03961321  0.09336814  0.38109475    -0.27400
F985        F  0.02776680  0.01808925  0.35812839    -0.19500
H986        H  0.98805783  0.01963755  0.38514692     0.16200
F987        F  0.01338169  0.11645008  0.40661017    -0.23200
H988        H  0.05342610  0.11434507  0.37968177     0.18000
C989        C  0.20893541  0.34243954  0.48792986    -0.27300
C990        C  0.23651325  0.35468609  0.48042768     0.06300
C991        C  0.23555083  0.37027356  0.46331597     0.26000
C992        C  0.20729436  0.37406758  0.45409463    -0.11800
C993        C  0.17956623  0.36201307  0.46161920    -0.25700
C994        C  0.18070087  0.34584646  0.47859493     0.36800
C995        C  0.26590570  0.35233284  0.49091791     0.06300
F996        F  0.26178391  0.38257442  0.45576416    -0.19500
H997        H  0.20718492  0.38624785  0.44094681     0.16200
F998        F  0.15454139  0.33381102  0.48637200    -0.23200
H999        H  0.20931098  0.33023985  0.50107033     0.18000
C1000       C  0.26776249  0.36394542  0.50911576     0.26000
C1001       C  0.29574639  0.36275502  0.51882566    -0.11700
C1002       C  0.32248002  0.34990528  0.51062560    -0.25800
C1003       C  0.32048800  0.33787969  0.49243259     0.36900
C1004       C  0.29240160  0.33920528  0.48268479    -0.27400
F1005       F  0.24276284  0.37750035  0.51727024    -0.19500
H1006       H  0.29652861  0.37230806  0.53273806     0.16200
F1007       F  0.34577380  0.32573209  0.48381734    -0.23200
H1008       H  0.29133491  0.33011491  0.46866742     0.18000
C1009       C  0.14801804  0.25834919  0.38334217    -0.27300
C1010       C  0.14880310  0.26895442  0.36492898     0.06300
C1011       C  0.14632697  0.30083068  0.36126269     0.26000
C1012       C  0.14098871  0.32161035  0.37574246    -0.11800
C1013       C  0.13763362  0.31080660  0.39402654    -0.25700
C1014       C  0.14236914  0.27913112  0.39786750     0.36800
C1015       C  0.14898660  0.24659260  0.34949094     0.06300
F1016       F  0.14780695  0.31164442  0.34357141    -0.19500
H1017       H  0.13761272  0.34591739  0.37247292     0.16200
F1018       F  0.14054596  0.26814491  0.41551446    -0.23200
H1019       H  0.15011786  0.23379744  0.38635150     0.18000
C1020       C  0.17281638  0.22475734  0.34764248     0.26000
C1021       C  0.17214928  0.20350979  0.33301162    -0.11700
C1022       C  0.14751562  0.20346158  0.32012953    -0.25800
C1023       C  0.12354921  0.22533605  0.32214946     0.36900
C1024       C  0.12443703  0.24673461  0.33669861    -0.27400
F1025       F  0.19682657  0.22420655  0.35984644    -0.19500
H1026       H  0.19085257  0.18684466  0.33192748     0.16200
F1027       F  0.09912902  0.22598890  0.31025817    -0.23200
H1028       H  0.10563982  0.26323442  0.33817334     0.18000
C1029       C  0.86448804  0.48843571  0.22391265    -0.27300
C1030       C  0.83676900  0.47308973  0.22869232     0.06300
C1031       C  0.80830641  0.48536597  0.22269196     0.26000
C1032       C  0.80774687  0.51233685  0.21185907    -0.11800
C1033       C  0.83547740  0.52790636  0.20717951    -0.25700
C1034       C  0.86392453  0.51571961  0.21337487     0.36800
C1035       C  0.83779563  0.44488175  0.24041741     0.06300
F1036       F  0.78112419  0.47095434  0.22702830    -0.19500
H1037       H  0.78556966  0.52117628  0.20720163     0.16200
F1038       F  0.89125512  0.52958707  0.20878063    -0.23200
H1039       H  0.88661203  0.47938873  0.22852104     0.18000
C1040       C  0.85496712  0.41871841  0.23489474     0.26000
C1041       C  0.85739299  0.39300053  0.24667839    -0.11700
C1042       C  0.84259074  0.39286625  0.26411081    -0.25800
C1043       C  0.82493460  0.41894694  0.26944712     0.36900
C1044       C  0.82259229  0.44461365  0.25766549    -0.27400
F1045       F  0.86912754  0.41795317  0.21802860    -0.19500
H1046       H  0.87080491  0.37314432  0.24213914     0.16200
F1047       F  0.81083984  0.42022643  0.28632656    -0.23200
H1048       H  0.80952461  0.46469869  0.26221791     0.18000
C1049       C  0.95373352  0.38612904  0.34566210    -0.27300
C1050       C  0.94506982  0.38293435  0.36436407     0.06300
C1051       C  0.91386321  0.37630392  0.36874504     0.26000
C1052       C  0.89252016  0.36998640  0.35453465    -0.11800
C1053       C  0.90213923  0.37001850  0.33584888    -0.25700
C1054       C  0.93258002  0.37968467  0.33151557     0.36800
C1055       C  0.96973917  0.38282447  0.37868575     0.06300
F1056       F  0.90444532  0.37445643  0.38672630    -0.19500
H1057       H  0.86917031  0.36275897  0.35822507     0.16200
F1058       F  0.94252456  0.38097665  0.31361468    -0.23200
H1059       H  0.97758207  0.39148023  0.34196419     0.18000
C1060       C  0.97394540  0.35670368  0.39013182     0.26000
C1061       C  0.00060785  0.35408051  0.40108304    -0.11700
C1062       C  0.02366872  0.37728571  0.40073947    -0.25800
C1063       C  0.01863236  0.40414177  0.38995531     0.36900
C1064       C  0.99198986  0.40671355  0.37902318    -0.27400
F1065       F  0.95337799  0.33271290  0.38978066    -0.19500
H1066       H  0.00367787  0.33331176  0.40933915     0.16200
F1067       F  0.03957057  0.42781732  0.38969903    -0.23200
H1068       H  0.98914580  0.42702445  0.37033107     0.18000
C1069       C  0.87385287  0.14413897  0.36753602    -0.27300
C1070       C  0.87169744  0.17492890  0.37377068     0.06300
C1071       C  0.87550988  0.18159579  0.39273023     0.26000
C1072       C  0.88325501  0.15792062  0.40506981    -0.11800
C1073       C  0.88690609  0.12726067  0.39871144    -0.25700
C1074       C  0.88122895  0.12036726  0.37989588     0.36800
C1075       C  0.86762263  0.20021464  0.36026767     0.06300
F1076       F  0.87354267  0.21123039  0.39910985    -0.19500
H1077       H  0.88732218  0.16373725  0.41951059     0.16200
F1078       F  0.88470742  0.09109557  0.37317655    -0.23200
H1079       H  0.87068760  0.13868975  0.35296246     0.18000
C1080       C  0.88919269  0.20436167  0.34580804     0.26000
C1081       C  0.88589049  0.22894358  0.33336924    -0.11700
C1082       C  0.86097163  0.24974815  0.33510763    -0.25800
C1083       C  0.83928422  0.24537654  0.34964228     0.36900
C1084       C  0.84274185  0.22083731  0.36210297    -0.27400
F1085       F  0.91394944  0.18511980  0.34404164    -0.19500
H1086       H  0.90295549  0.23171837  0.32242089     0.16200
F1087       F  0.81481785  0.26480950  0.35199218    -0.23200
H1088       H  0.82595802  0.21786540  0.37319661     0.18000
C1089       C  0.27342504  0.09616741  0.98634770    -0.27300
C1090       C  0.25054154  0.07409080  0.99103930     0.06300
C1091       C  0.25490220  0.05580929  0.00699822     0.26000
C1092       C  0.28155245  0.05944536  0.01787683    -0.11800
C1093       C  0.30451175  0.08152855  0.01327371    -0.25700
C1094       C  0.30006219  0.10000975  0.99733250     0.36800
C1095       C  0.22217805  0.07017157  0.97939951     0.06300
F1096       F  0.23298056  0.03490855  0.01240373    -0.19500
H1097       H  0.28401625  0.04499417  0.03008525     0.16200
F1098       F  0.32143832  0.12164522  0.99220797    -0.23200
H1099       H  0.27084101  0.11029689  0.97401328     0.18000
C1100       C  0.20453984  0.09598694  0.97381587     0.26000
C1101       C  0.17729514  0.09180403  0.96350647    -0.11700
C1102       C  0.16716112  0.06190314  0.95836339    -0.25800
C1103       C  0.18497618  0.03610857  0.96373500     0.36900
C1104       C  0.21214678  0.04028418  0.97412410    -0.27400
F1105       F  0.21315958  0.12524948  0.97869631    -0.19500
H1106       H  0.16422419  0.11210753  0.95939040     0.16200
F1107       F  0.17588361  0.00679758  0.95927665    -0.23200
H1108       H  0.22548367  0.02003550  0.97801373     0.18000
C1109       C  0.65398284  0.98635385  0.21333333    -0.27300
C1110       C  0.63577566  0.98520586  0.22948100     0.06300
C1111       C  0.61822219  0.01130645  0.23459618     0.26000
C1112       C  0.61964681  0.03843113  0.22390287    -0.11800
C1113       C  0.63853600  0.03994547  0.20792280    -0.25700
C1114       C  0.65532290  0.01327252  0.20257832     0.36800
C1115       C  0.63670695  0.95713403  0.24126666     0.06300
F1116       F  0.60083526  0.01103429  0.25035581    -0.19500
H1117       H  0.60655081  0.05850872  0.22842712     0.16200
F1118       F  0.67362478  0.01319683  0.18719094    -0.23200
H1119       H  0.66752033  0.96634210  0.20915501     0.18000
C1120       C  0.60970967  0.93979402  0.24505412     0.26000
C1121       C  0.61159029  0.91226156  0.25532022    -0.11700
C1122       C  0.64030902  0.90192232  0.26220781    -0.25800
C1123       C  0.66718787  0.91971146  0.25866774     0.36900
C1124       C  0.66533528  0.94689081  0.24817556    -0.27400
F1125       F  0.58176020  0.94896150  0.23834605    -0.19500
H1126       H  0.59056122  0.89902958  0.25791485     0.16200
F1127       F  0.69544902  0.91034862  0.26479016    -0.23200
H1128       H  0.68637477  0.95998489  0.24534249     0.18000
C1129       C  0.76771964  0.17511606  0.22037447    -0.27300
C1130       C  0.75796041  0.18590874  0.23790550     0.06300
C1131       C  0.73002983  0.17434094  0.24540359     0.26000
C1132       C  0.71072269  0.15528855  0.23476766    -0.11800
C1133       C  0.71896033  0.14695450  0.21653569    -0.25700
C1134       C  0.74851529  0.15552074  0.20979193     0.36800
C1135       C  0.77503196  0.21132147  0.24756139     0.06300
F1136       F  0.72068120  0.18262860  0.26274277    -0.19500
H1137       H  0.68840769  0.14842465  0.24046839     0.16200
F1138       F  0.75768517  0.14737866  0.19240099    -0.23200
H1139       H  0.78924240  0.18347178  0.21432660     0.18000
C1140       C  0.80746689  0.21065632  0.24974986     0.26000
C1141       C  0.82271393  0.23487060  0.25905765    -0.11700
C1142       C  0.80597032  0.26007362  0.26650568    -0.25800
C1143       C  0.77361763  0.26095234  0.26402901     0.36900
C1144       C  0.75846913  0.23698796  0.25450878    -0.27400
F1145       F  0.82430652  0.18615305  0.24350355    -0.19500
H1146       H  0.84763379  0.23338668  0.26091704     0.16200
F1147       F  0.75656981  0.28499205  0.27069473    -0.23200
H1148       H  0.73357867  0.23853228  0.25253653     0.18000
C1149       C  0.52765902  0.09820383  0.13735460    -0.27300
C1150       C  0.53295002  0.10293073  0.11826385     0.06300
C1151       C  0.56355448  0.10942732  0.11228390     0.26000
C1152       C  0.58809655  0.11056951  0.12511075    -0.11800
C1153       C  0.58260752  0.10577683  0.14414446    -0.25700
C1154       C  0.55208523  0.09954551  0.15013168     0.36800
C1155       C  0.50649868  0.10059293  0.10485133     0.06300
F1156       F  0.56989885  0.11427965  0.09403515    -0.19500
H1157       H  0.61132072  0.11597111  0.12021618     0.16200
F1158       F  0.54586850  0.09444839  0.16838101    -0.23200
H1159       H  0.50438202  0.09380190  0.14248688     0.18000
C1160       C  0.48471306  0.07616733  0.10618141     0.26000
C1161       C  0.45960655  0.07434702  0.09390826    -0.11700
C1162       C  0.45550359  0.09657609  0.07981974    -0.25800
C1163       C  0.47746976  0.12087675  0.07831845     0.36900
C1164       C  0.50249779  0.12287599  0.09076787    -0.27400
F1165       F  0.48797585  0.05351259  0.11912237    -0.19500
H1166       H  0.44335342  0.05524341  0.09545763     0.16200
F1167       F  0.47481320  0.14285850  0.06492412    -0.23200
H1168       H  0.51854507  0.14220863  0.08953457     0.18000
C1169       C  0.31630142  0.48724538  0.20485708    -0.27300
C1170       C  0.34037216  0.49297252  0.21747706     0.06300
C1171       C  0.36452657  0.47145682  0.21924935     0.26000
C1172       C  0.36406645  0.44397845  0.20888150    -0.11800
C1173       C  0.33960080  0.43764186  0.19647756    -0.25700
C1174       C  0.31592356  0.45993108  0.19430440     0.36800
C1175       C  0.33885204  0.52005113  0.22993163     0.06300
F1176       F  0.38798298  0.47660944  0.23146971    -0.19500
H1177       H  0.38269965  0.42744721  0.21076534     0.16200
F1178       F  0.29178365  0.45493517  0.18254946    -0.23200
H1179       H  0.29744614  0.50368366  0.20348518     0.18000
C1180       C  0.35592824  0.54713252  0.22617826     0.26000
C1181       C  0.35493852  0.57216184  0.23859045    -0.11700
C1182       C  0.33690705  0.57048048  0.25491364    -0.25800
C1183       C  0.31980596  0.54313022  0.25854642     0.36900
C1184       C  0.32078194  0.51825200  0.24608967    -0.27400
F1185       F  0.37351555  0.54930123  0.21055090    -0.19500
H1186       H  0.36828898  0.59287240  0.23540739     0.16200
F1187       F  0.30275523  0.53998212  0.27432810    -0.23200
H1188       H  0.30775151  0.49728241  0.24917559     0.18000
C1189       C  0.18420016  0.24633057  0.23065337    -0.27300
C1190       C  0.21653336  0.24616816  0.22833344     0.06300
C1191       C  0.23351292  0.22014520  0.23428605     0.26000
C1192       C  0.21856466  0.19554448  0.24330426    -0.11800
C1193       C  0.18635724  0.19620494  0.24637210    -0.25700
C1194       C  0.16914111  0.22160965  0.23952222     0.36800
C1195       C  0.23280304  0.27340641  0.22028243     0.06300
F1196       F  0.26466957  0.21858585  0.23145950    -0.19500
H1197       H  0.23233336  0.17624657  0.24820952     0.16200
F1198       F  0.13795802  0.22348457  0.24216962    -0.23200
H1199       H  0.17071318  0.26612199  0.22618760     0.18000
C1200       C  0.22403066  0.28589081  0.20303118     0.26000
C1201       C  0.24252705  0.30864128  0.19452767    -0.11700
C1202       C  0.27001675  0.31910338  0.20307315    -0.25800
C1203       C  0.27708508  0.30861619  0.22108118     0.36900
C1204       C  0.25856877  0.28604774  0.22956857    -0.27400
F1205       F  0.19904179  0.27444852  0.19374916    -0.19500
H1206       H  0.23660170  0.31625476  0.18065870     0.16200
F1207       F  0.30278768  0.31895931  0.23012529    -0.23200
H1208       H  0.26507555  0.27750105  0.24314720     0.18000
C1209       C  0.30119390  0.23668120  0.12434587    -0.27300
C1210       C  0.32747044  0.21776849  0.12265660     0.06300
C1211       C  0.35485645  0.22594426  0.13215609     0.26000
C1212       C  0.35601595  0.25308096  0.14282461    -0.11800
C1213       C  0.33008188  0.27265997  0.14393278    -0.25700
C1214       C  0.30236852  0.26386381  0.13492811     0.36800
C1215       C  0.32739286  0.19163121  0.10936138     0.06300
F1216       F  0.38105077  0.20877614  0.13015096    -0.19500
H1217       H  0.37763110  0.25949735  0.14952433     0.16200
F1218       F  0.27646059  0.28163592  0.13622032    -0.23200
H1219       H  0.27994582  0.23069086  0.11710589     0.18000
C1220       C  0.33633095  0.16165042  0.11481761     0.26000
C1221       C  0.34127478  0.13862445  0.10141913    -0.11700
C1222       C  0.33784051  0.14544377  0.08245971    -0.25800
C1223       C  0.32651669  0.17470877  0.07717284     0.36900
C1224       C  0.32117167  0.19753204  0.09057374    -0.27400
F1225       F  0.34161767  0.15511441  0.13298097    -0.19500
H1226       H  0.35000849  0.11622217  0.10577293     0.16200
F1227       F  0.32210720  0.18172430  0.05898294    -0.23200
H1228       H  0.31402451  0.22046439  0.08615285     0.18000
C1229       C  0.80553582  0.32896680  0.99009463    -0.27300
C1230       C  0.78344249  0.35252770  0.98754537     0.06300
C1231       C  0.78899174  0.37541298  0.97404620     0.26000
C1232       C  0.81593607  0.37469078  0.96328470    -0.11800
C1233       C  0.83809872  0.35108909  0.96558946    -0.25700
C1234       C  0.83270309  0.32819606  0.97925715     0.36800
C1235       C  0.75440470  0.35350074  0.99868677     0.06300
F1236       F  0.76776492  0.39800293  0.97080223    -0.19500
H1237       H  0.81909831  0.39253124  0.95284720     0.16200
F1238       F  0.85328565  0.30484837  0.98199817    -0.23200
H1239       H  0.80174551  0.31119395  0.00050480     0.18000
C1240       C  0.73368476  0.32816087  0.99908332     0.26000
C1241       C  0.70472388  0.33095904  0.00788441    -0.11700
C1242       C  0.69607650  0.35890595  0.01664015    -0.25800
C1243       C  0.71747076  0.38382154  0.01678027     0.36900
C1244       C  0.74618192  0.38104814  0.00787233    -0.27400
F1245       F  0.74092853  0.30113646  0.99037582    -0.19500
H1246       H  0.68903481  0.31121660  0.00781628     0.16200
F1247       F  0.71054496  0.41121348  0.02516525    -0.23200
H1248       H  0.76195956  0.40073597  0.00789835     0.18000
C1249       C  0.69445792  0.22954918  0.13000772    -0.27300
C1250       C  0.67137403  0.25234398  0.13016344     0.06300
C1251       C  0.64775206  0.25121545  0.14363518     0.26000
C1252       C  0.64590455  0.22610785  0.15585661    -0.11800
C1253       C  0.66753025  0.20182692  0.15469917    -0.25700
C1254       C  0.69280946  0.20457428  0.14227663     0.36800
C1255       C  0.66837194  0.27328730  0.11418797     0.06300
F1256       F  0.62484287  0.27280278  0.14379685    -0.19500
H1257       H  0.62640058  0.22469412  0.16533815     0.16200
F1258       F  0.71512398  0.18241790  0.14127689    -0.23200
H1259       H  0.71278135  0.23023431  0.11968141     0.18000
C1260       C  0.66874522  0.30566594  0.11632441     0.26000
C1261       C  0.66072032  0.32472365  0.10138131    -0.11700
C1262       C  0.65184988  0.31159784  0.08426318    -0.25800
C1263       C  0.65323756  0.27909449  0.08198116     0.36900
C1264       C  0.66153512  0.26025462  0.09683237    -0.27400
F1265       F  0.67595478  0.31868428  0.13296184    -0.19500
H1266       H  0.66011470  0.34963950  0.10346741     0.16200
F1267       F  0.64556408  0.26527810  0.06563451    -0.23200
H1268       H  0.66111570  0.23524398  0.09504285     0.18000
C1269       C  0.48319296  0.35277227  0.08268641    -0.27300
C1270       C  0.47983355  0.37796932  0.09498744     0.06300
C1271       C  0.50361108  0.40040975  0.09587597     0.26000
C1272       C  0.53061495  0.39696398  0.08532359    -0.11800
C1273       C  0.53458112  0.37126751  0.07345151    -0.25700
C1274       C  0.51016181  0.34947823  0.07190891     0.36800
C1275       C  0.45287001  0.37951847  0.10790563     0.06300
F1276       F  0.50079198  0.42575278  0.10700349    -0.19500
H1277       H  0.54858751  0.41452517  0.08659480     0.16200
F1278       F  0.51242745  0.32470836  0.06029530    -0.23200
H1279       H  0.46532608  0.33503191  0.08183965     0.18000
C1280       C  0.42220227  0.37450389  0.10174881     0.26000
C1281       C  0.39757028  0.37386593  0.11452394    -0.11700
C1282       C  0.40315921  0.37784790  0.13361168    -0.25800
C1283       C  0.43362473  0.38399615  0.13964247     0.36900
C1284       C  0.45811816  0.38473783  0.12692221    -0.27400
F1285       F  0.41608088  0.36985950  0.08345741    -0.19500
H1286       H  0.37432200  0.36883615  0.10958367     0.16200
F1287       F  0.43987427  0.38865026  0.15792523    -0.23200
H1288       H  0.48148618  0.38831254  0.13208759     0.18000
C1289       C  0.76429944  0.85555691  0.97340634    -0.27300
C1290       C  0.73574672  0.86140057  0.98222927     0.06300
C1291       C  0.73504276  0.86591250  0.00152290     0.26000
C1292       C  0.76254923  0.86527768  0.01178462    -0.11800
C1293       C  0.79123875  0.85949004  0.00308321    -0.25700
C1294       C  0.79188993  0.85425169  0.98376738     0.36800
C1295       C  0.70669635  0.86360177  0.97136707     0.06300
F1296       F  0.70776347  0.87161952  0.01037400    -0.19500
H1297       H  0.76140482  0.86921709  0.02663992     0.16200
F1298       F  0.81919855  0.84904968  0.97484157    -0.23200
H1299       H  0.76516942  0.85210507  0.95850561     0.18000
C1300       C  0.70055530  0.89000596  0.96060062     0.26000
C1301       C  0.67230044  0.89270399  0.95113520    -0.11700
C1302       C  0.64957937  0.86913264  0.95226075    -0.25800
C1303       C  0.65597782  0.84256260  0.96305341     0.36900
C1304       C  0.68423105  0.84000060  0.97255487    -0.27400
F1305       F  0.72159641  0.91353279  0.95963737    -0.19500
H1306       H  0.66812361  0.91343961  0.94304207     0.16200
F1307       F  0.63520782  0.81883111  0.96429411    -0.23200
H1308       H  0.68862678  0.81955837  0.98087889     0.18000
C1309       C  0.49442987  0.94573133  0.98487826    -0.27300
C1310       C  0.48886968  0.97611379  0.97869354     0.06300
C1311       C  0.50365844  0.98656655  0.96239067     0.26000
C1312       C  0.52323050  0.96674843  0.95239996    -0.11800
C1313       C  0.52816934  0.93604600  0.95832529    -0.25700
C1314       C  0.51364838  0.92578413  0.97478780     0.36800
C1315       C  0.46808942  0.99676828  0.98953463     0.06300
F1316       F  0.49827839  0.01552259  0.95570466    -0.19500
H1317       H  0.53362355  0.97514103  0.93964434     0.16200
F1318       F  0.51773453  0.89640709  0.98113513    -0.23200
H1319       H  0.48386342  0.93738674  0.99759443     0.18000
C1320       C  0.43900939  0.98615381  0.99600548     0.26000
C1321       C  0.42056537  0.00520374  0.00722475    -0.11700
C1322       C  0.43045870  0.03533507  0.01182635    -0.25800
C1323       C  0.45914253  0.04624260  0.00498658     0.36900
C1324       C  0.47782574  0.02700922  0.99407340    -0.27400
F1325       F  0.42823432  0.95752183  0.99129838    -0.19500
H1326       H  0.39840823  0.99651935  0.01217996     0.16200
F1327       F  0.46978419  0.07501787  0.00950064    -0.23200
H1328       H  0.50029904  0.03551101  0.98955048     0.18000
C1329       C  0.34931177  0.89385848  0.72473357    -0.27300
C1330       C  0.32792118  0.91818305  0.72641322     0.06300
C1331       C  0.30501822  0.91674629  0.74030874     0.26000
C1332       C  0.30417521  0.89168216  0.75265864    -0.11800
C1333       C  0.32611904  0.86759055  0.75134760    -0.25700
C1334       C  0.34845498  0.86872829  0.73698462     0.36800
C1335       C  0.33085069  0.94570300  0.71426692     0.06300
F1336       F  0.28435418  0.94023302  0.74245086    -0.19500
H1337       H  0.28674219  0.89155048  0.76352658     0.16200
F1338       F  0.36978467  0.84585279  0.73483037    -0.23200
H1339       H  0.36697423  0.89454512  0.71399489     0.18000
C1340       C  0.35842128  0.96323161  0.71428993     0.26000
C1341       C  0.36130747  0.98934114  0.70295429    -0.11700
C1342       C  0.33691265  0.99836787  0.69120515    -0.25800
C1343       C  0.30929648  0.98064280  0.69108820     0.36900
C1344       C  0.30629431  0.95463189  0.70265730    -0.27400
F1345       F  0.38234446  0.95547375  0.72561820    -0.19500
H1346       H  0.38279987  0.00250238  0.70335859     0.16200
F1347       F  0.28496720  0.98880324  0.68019055    -0.23200
H1348       H  0.28488213  0.94132424  0.70249558     0.18000
C1349       C  0.38739759  0.87318354  0.85556842    -0.27300
C1350       C  0.41949716  0.87442546  0.85205291     0.06300
C1351       C  0.43071502  0.86601036  0.83442159     0.26000
C1352       C  0.41035822  0.85525912  0.82086622    -0.11800
C1353       C  0.37844876  0.85222322  0.82461628    -0.25700
C1354       C  0.36687121  0.86234830  0.84191214     0.36800
C1355       C  0.44178237  0.88052323  0.86720837     0.06300
F1356       F  0.46167982  0.86568460  0.83076288    -0.19500
H1357       H  0.41994178  0.84772146  0.80768130     0.16200
F1358       F  0.33619466  0.85983893  0.84610216    -0.23200
H1359       H  0.37842260  0.87947323  0.86913359     0.18000
C1360       C  0.46602423  0.90209850  0.86488798     0.26000
C1361       C  0.49068845  0.90287674  0.87744181    -0.11700
C1362       C  0.49162271  0.88217824  0.89254479    -0.25800
C1363       C  0.46607930  0.86217976  0.89558731     0.36900
C1364       C  0.44142193  0.86145407  0.88299036    -0.27400
F1365       F  0.46646271  0.92150366  0.85003270    -0.19500
H1366       H  0.50966482  0.91891478  0.87487345     0.16200
F1367       F  0.46539589  0.84236233  0.91023401    -0.23200
H1368       H  0.42289575  0.84465983  0.88498660     0.18000
C1369       C  0.21323923  0.59269678  0.99784700    -0.27300
C1370       C  0.23971610  0.58018879  0.00631711     0.06300
C1371       C  0.23688753  0.56642626  0.02391143     0.26000
C1372       C  0.20777106  0.56382053  0.03245712    -0.11800
C1373       C  0.18087323  0.57501867  0.02367698    -0.25700
C1374       C  0.18402399  0.59017171  0.00639312     0.36800
C1375       C  0.26945372  0.57859372  0.99595906     0.06300
F1376       F  0.26229254  0.55500585  0.03266891    -0.19500
H1377       H  0.20624463  0.55259269  0.04588324     0.16200
F1378       F  0.15879693  0.60125516  0.99730523    -0.23200
H1379       H  0.21500842  0.60324957  0.98423038     0.18000
C1380       C  0.28148964  0.54955065  0.99077031     0.26000
C1381       C  0.30838294  0.54769978  0.97992697    -0.11700
C1382       C  0.32415271  0.57473299  0.97432286    -0.25800
C1383       C  0.31262056  0.60387322  0.97995443     0.36900
C1384       C  0.28521336  0.60573271  0.99050472    -0.27400
F1385       F  0.26650795  0.52294744  0.99561952    -0.19500
H1386       H  0.31676886  0.52504753  0.97575414     0.16200
F1387       F  0.32695560  0.63052543  0.97453525    -0.23200
H1388       H  0.27615393  0.62829517  0.99431587     0.18000
C1389       C  0.49113783  0.50336829  0.99081406    -0.27300
C1390       C  0.49690711  0.47382767  0.98325460     0.06300
C1391       C  0.47824114  0.46310261  0.96853431     0.26000
C1392       C  0.45453144  0.48170490  0.96149615    -0.11800
C1393       C  0.44919117  0.51156943  0.96874955    -0.25700
C1394       C  0.46773794  0.52221840  0.98356586     0.36800
C1395       C  0.52156050  0.45390292  0.99121847     0.06300
F1396       F  0.48360891  0.43507672  0.96047755    -0.19500
H1397       H  0.44114531  0.47312943  0.94983156     0.16200
F1398       F  0.46348525  0.55089288  0.99100082    -0.23200
H1399       H  0.50471063  0.51185791  0.00242006     0.18000
C1400       C  0.55135787  0.46580301  0.99526628     0.26000
C1401       C  0.57344807  0.44712454  0.00405604    -0.11700
C1402       C  0.56640763  0.41617646  0.00854965    -0.25800
C1403       C  0.53694771  0.40406468  0.00397470     0.36900
C1404       C  0.51479677  0.42283497  0.99553756    -0.27400
F1405       F  0.55909971  0.49545843  0.99077423    -0.19500
H1406       H  0.59590033  0.45693153  0.00756502     0.16200
F1407       F  0.52866722  0.37469356  0.00883681    -0.23200
H1408       H  0.49186183  0.41332098  0.99299692     0.18000
C1409       C  0.34079362  0.63488480  0.86974851    -0.27300
C1410       C  0.33851141  0.66677314  0.87349914     0.06300
C1411       C  0.34242464  0.67748843  0.89179181     0.26000
C1412       C  0.35038369  0.65670567  0.90589541    -0.11800
C1413       C  0.35407400  0.62490649  0.90201006    -0.25700
C1414       C  0.34828304  0.61401314  0.88387751     0.36800
C1415       C  0.33482282  0.68894833  0.85804386     0.06300
F1416       F  0.34048357  0.70826389  0.89577457    -0.19500
H1417       H  0.35467886  0.66562660  0.91973228     0.16200
F1418       F  0.35201363  0.58357917  0.87946257    -0.23200
H1419       H  0.33776465  0.62631434  0.85571162     0.18000
C1420       C  0.35745409  0.69066296  0.84400073     0.26000
C1421       C  0.35490492  0.71264334  0.82985703    -0.11700
C1422       C  0.32970021  0.73332368  0.82938791    -0.25800
C1423       C  0.30660556  0.73101408  0.84329557     0.36900
C1424       C  0.30937277  0.70912847  0.85754834    -0.27400
F1425       F  0.38265095  0.67179180  0.84435133    -0.19500
H1426       H  0.37304310  0.71375237  0.81942378     0.16200
F1427       F  0.28149215  0.74998517  0.84330867    -0.23200
H1428       H  0.29167114  0.70793614  0.86824975     0.18000
C1429       C  0.64976911  0.49423913  0.74800892    -0.27300
C1430       C  0.62394996  0.48263878  0.73835185     0.06300
C1431       C  0.59636998  0.50008093  0.73810737     0.26000
C1432       C  0.59480024  0.52856887  0.74747891    -0.11800
C1433       C  0.62068509  0.54012906  0.75720909    -0.25700
C1434       C  0.64838373  0.52270141  0.75718778     0.36800
C1435       C  0.62637670  0.45253298  0.72846943     0.06300
F1436       F  0.57116805  0.48990263  0.72852272    -0.19500
H1437       H  0.57326049  0.54146686  0.74720252     0.16200
F1438       F  0.67435754  0.53304394  0.76595791    -0.23200
H1439       H  0.67114484  0.48108419  0.74855884     0.18000
C1440       C  0.65196856  0.44645590  0.71687984     0.26000
C1441       C  0.65462399  0.41789069  0.70792215    -0.11700
C1442       C  0.63179455  0.39471256  0.71015726    -0.25800
C1443       C  0.60616453  0.40073208  0.72182511     0.36900
C1444       C  0.60360861  0.42940011  0.73090593    -0.27400
F1445       F  0.67413758  0.46841646  0.71383013    -0.19500
H1446       H  0.67455542  0.41415669  0.69899685     0.16200
F1447       F  0.58354441  0.37911462  0.72447516    -0.23200
H1448       H  0.58396480  0.43342334  0.74001319     0.18000
C1449       C  0.56707303  0.56001873  0.86059922    -0.27300
C1450       C  0.53463385  0.55799405  0.85873652     0.06300
C1451       C  0.52113479  0.56261708  0.84125316     0.26000
C1452       C  0.53952335  0.57102542  0.82617238    -0.11800
C1453       C  0.57175276  0.57534705  0.82817053    -0.25700
C1454       C  0.58567834  0.56831299  0.84535314     0.36800
C1455       C  0.51424488  0.55584150  0.87518459     0.06300
F1456       F  0.48979880  0.56175607  0.83909943    -0.19500
H1457       H  0.52809561  0.57582057  0.81310042     0.16200
F1458       F  0.61682208  0.57125052  0.84776315    -0.23200
H1459       H  0.57777946  0.55646406  0.87403094     0.18000
C1460       C  0.49067313  0.53327033  0.87614484     0.26000
C1461       C  0.46722819  0.53572724  0.88950469    -0.11700
C1462       C  0.46684396  0.56076913  0.90212499    -0.25800
C1463       C  0.49151793  0.58240510  0.90173612     0.36900
C1464       C  0.51500410  0.57980763  0.88839519    -0.27400
F1465       F  0.48968870  0.50956320  0.86368138    -0.19500
H1466       H  0.44893579  0.51840059  0.88962401     0.16200
F1467       F  0.49240160  0.60684745  0.91366367    -0.23200
H1468       H  0.53282938  0.59759632  0.88768655     0.18000
C1469       C  0.60742911  0.76344760  0.87383243    -0.27300
C1470       C  0.61213062  0.77386786  0.85561992     0.06300
C1471       C  0.61234677  0.80586298  0.85192816     0.26000
C1472       C  0.60701773  0.82711286  0.86634523    -0.11800
C1473       C  0.60091369  0.81662374  0.88452168    -0.25700
C1474       C  0.60171158  0.78448266  0.88816298     0.36800
C1475       C  0.61517814  0.75064351  0.84068382     0.06300
F1476       F  0.61734415  0.81643902  0.83441248    -0.19500
H1477       H  0.60647941  0.85168267  0.86314241     0.16200
F1478       F  0.59637876  0.77320569  0.90548963    -0.23200
H1479       H  0.60723769  0.73878297  0.87684211     0.18000
C1480       C  0.64040698  0.73020813  0.84062394     0.26000
C1481       C  0.64048503  0.70459579  0.82874286    -0.11700
C1482       C  0.61524132  0.69865366  0.81679442    -0.25800
C1483       C  0.59064382  0.72015502  0.81622790     0.36900
C1484       C  0.59073084  0.74596924  0.82810957    -0.27400
F1485       F  0.66448384  0.73450175  0.85253183    -0.19500
H1486       H  0.66003341  0.68886875  0.82936288     0.16200
F1487       F  0.56606425  0.71580491  0.80472006    -0.23200
H1488       H  0.57099362  0.76151678  0.82814069     0.18000
C1489       C  0.72350436  0.54327111  0.45505250    -0.27300
C1490       C  0.72776119  0.56521287  0.46928131     0.06300
C1491       C  0.70361434  0.58589905  0.47357039     0.26000
C1492       C  0.67581878  0.58466415  0.46372556    -0.11800
C1493       C  0.67138338  0.56266241  0.44951223    -0.25700
C1494       C  0.69553138  0.54176915  0.44531025     0.36800
C1495       C  0.75683269  0.56571205  0.48012987     0.06300
F1496       F  0.70652142  0.60679157  0.48762426    -0.19500
H1497       H  0.65768971  0.60098717  0.46732873     0.16200
F1498       F  0.69241322  0.52010412  0.43170440    -0.23200
H1499       H  0.74194708  0.52731727  0.45142118     0.18000
C1500       C  0.76857350  0.53816784  0.48780158     0.26000
C1501       C  0.79438706  0.53918865  0.49940046    -0.11700
C1502       C  0.80902535  0.56757171  0.50349923    -0.25800
C1503       C  0.79799956  0.59503042  0.49535382     0.36900
C1504       C  0.77211336  0.59401299  0.48371259    -0.27400
F1505       F  0.75432741  0.51042007  0.48478341    -0.19500
H1506       H  0.80272995  0.51771219  0.50537684     0.16200
F1507       F  0.81131943  0.62293558  0.49924556    -0.23200
H1508       H  0.76366520  0.61542721  0.47772144     0.18000
C1509       C  0.95380076  0.46429331  0.49621750    -0.27300
C1510       C  0.97761391  0.47921338  0.48627819     0.06300
C1511       C  0.97743098  0.51169445  0.48463794     0.26000
C1512       C  0.95466001  0.52902278  0.49363258    -0.11800
C1513       C  0.93173530  0.51432543  0.50448212    -0.25700
C1514       C  0.93097496  0.48161983  0.50527526     0.36800
C1515       C  0.00314989  0.46101538  0.47811388     0.06300
F1516       F  0.00027160  0.52680756  0.47520302    -0.19500
H1517       H  0.95587474  0.55411512  0.49272643     0.16200
F1518       F  0.90886675  0.46634030  0.51521624    -0.23200
H1519       H  0.95324254  0.43918587  0.49724161     0.18000
C1520       C  0.01999765  0.43980293  0.48897290     0.26000
C1521       C  0.04420941  0.42278419  0.48104762    -0.11700
C1522       C  0.05224008  0.42722686  0.46236582    -0.25800
C1523       C  0.03552642  0.44858926  0.45156185     0.36900
C1524       C  0.01113027  0.46524363  0.45940130    -0.27400
F1525       F  0.01320865  0.43576603  0.50724117    -0.19500
H1526       H  0.05649960  0.40593740  0.48941122     0.16200
F1527       F  0.04139878  0.45182486  0.43311040    -0.23200
H1528       H  0.99800708  0.48102586  0.45075109     0.18000
C1529       C  0.14864910  0.44279884  0.70155592    -0.27300
C1530       C  0.12853884  0.43636938  0.71640602     0.06300
C1531       C  0.11054566  0.46027896  0.72409735     0.26000
C1532       C  0.11219837  0.49009163  0.71666651    -0.11800
C1533       C  0.13207579  0.49658037  0.70161929    -0.25700
C1534       C  0.15055920  0.47262322  0.69420522     0.36800
C1535       C  0.12821823  0.40516332  0.72458962     0.06300
F1536       F  0.09219477  0.45505874  0.73915406    -0.19500
H1537       H  0.09802947  0.50814801  0.72281834     0.16200
F1538       F  0.17036308  0.47777783  0.67981949    -0.23200
H1539       H  0.16293997  0.42459764  0.69564610     0.18000
C1540       C  0.10030114  0.38865036  0.72725932     0.26000
C1541       C  0.10062742  0.35981837  0.73614464    -0.11700
C1542       C  0.12874699  0.34749739  0.74252248    -0.25800
C1543       C  0.15675963  0.36347349  0.73900663     0.36900
C1544       C  0.15638716  0.39205462  0.73013861    -0.27400
F1545       F  0.07283858  0.40052457  0.72142491    -0.19500
H1546       H  0.07888886  0.34776906  0.73869481     0.16200
F1547       F  0.18454841  0.35171070  0.74441211    -0.23200
H1548       H  0.17810252  0.40442289  0.72806555     0.18000
C1549       C  0.20561693  0.64880432  0.74241428    -0.27300
C1550       C  0.22862768  0.66547522  0.73269427     0.06300
C1551       C  0.23456269  0.65835555  0.71398087     0.26000
C1552       C  0.21706396  0.63572254  0.70502505    -0.11800
C1553       C  0.19280792  0.62039805  0.71436437    -0.25700
C1554       C  0.18748324  0.62659460  0.73324943     0.36800
C1555       C  0.24570839  0.69097658  0.74181135     0.06300
F1556       F  0.25580734  0.67470643  0.70396322    -0.19500
H1557       H  0.22110848  0.63179557  0.69035018     0.16200
F1558       F  0.16445702  0.61175142  0.74266487    -0.23200
H1559       H  0.20121250  0.65355371  0.75695537     0.18000
C1560       C  0.22982698  0.71429469  0.75162546     0.26000
C1561       C  0.24634439  0.73840885  0.76007068    -0.11700
C1562       C  0.27889054  0.73979849  0.75871449    -0.25800
C1563       C  0.29461221  0.71688858  0.74832195     0.36900
C1564       C  0.27811302  0.69260982  0.74016625    -0.27400
F1565       F  0.19834002  0.71402054  0.75282643    -0.19500
H1566       H  0.23364056  0.75576728  0.76785822     0.16200
F1567       F  0.32599133  0.71733447  0.74631677    -0.23200
H1568       H  0.29075943  0.67481005  0.73270268     0.18000
C1569       C  0.98661027  0.52990715  0.59282009    -0.27300
C1570       C  0.00542231  0.55575381  0.59644546     0.06300
C1571       C  0.99966783  0.58399950  0.58736129     0.26000
C1572       C  0.97435956  0.58659415  0.57537054    -0.11800
C1573       C  0.95458419  0.56105111  0.57234724    -0.25700
C1574       C  0.96146460  0.53237314  0.58080432     0.36800
C1575       C  0.02927762  0.55386860  0.61091062     0.06300
F1576       F  0.01757348  0.60940444  0.59081272    -0.19500
H1577       H  0.96972652  0.60878318  0.56889446     0.16200
F1578       F  0.94395412  0.50664351  0.57751927    -0.23200
H1579       H  0.99112844  0.50793039  0.59959160     0.18000
C1580       C  0.02058902  0.54752683  0.62933559     0.26000
C1581       C  0.04252504  0.54950949  0.64349133    -0.11700
C1582       C  0.07344004  0.55734142  0.63938163    -0.25800
C1583       C  0.08247285  0.56184156  0.62074012     0.36900
C1584       C  0.06036822  0.56036547  0.60663191    -0.27400
F1585       F  0.99053210  0.54121457  0.63374854    -0.19500
H1586       H  0.03515906  0.54585558  0.65771852     0.16200
F1587       F  0.11213911  0.56969596  0.61624119    -0.23200
H1588       H  0.06728748  0.56511652  0.59244025     0.18000
C1589       C  0.80492656  0.94893132  0.70803950    -0.27300
C1590       C  0.82120370  0.94781460  0.72491035     0.06300
C1591       C  0.83685311  0.92049140  0.72979882     0.26000
C1592       C  0.83611121  0.89475947  0.71802811    -0.11800
C1593       C  0.81971458  0.89560902  0.70113884    -0.25700
C1594       C  0.80406978  0.92309147  0.69622712     0.36800
C1595       C  0.82160968  0.97500021  0.73748109     0.06300
F1596       F  0.85333436  0.91883366  0.74583269    -0.19500
H1597       H  0.84839135  0.87403550  0.72225676     0.16200
F1598       F  0.78787929  0.92510041  0.68011445    -0.23200
H1599       H  0.79249955  0.96975185  0.70413009     0.18000
C1600       C  0.83077160  0.00441960  0.73099260     0.26000
C1601       C  0.83164529  0.02975342  0.74313551    -0.11700
C1602       C  0.82312605  0.02624467  0.76187688    -0.25800
C1603       C  0.81390915  0.99677365  0.76834604     0.36900
C1604       C  0.81320232  0.97144004  0.75621673    -0.27400
F1605       F  0.83957718  0.00849892  0.71303389    -0.19500
H1606       H  0.83880609  0.05221467  0.73783081     0.16200
F1607       F  0.80630191  0.99222142  0.78645999    -0.23200
H1608       H  0.80597856  0.94894969  0.76145157     0.18000
C1609       C  0.72826322  0.75451043  0.72611432    -0.27300
C1610       C  0.70551923  0.73917935  0.71559829     0.06300
C1611       C  0.70112143  0.74727660  0.69690988     0.26000
C1612       C  0.72104679  0.76891142  0.68852174    -0.11800
C1613       C  0.74544365  0.78241828  0.69874384    -0.25700
C1614       C  0.74811580  0.77597681  0.71779047     0.36800
C1615       C  0.68801543  0.71364706  0.72426797     0.06300
F1616       F  0.67913651  0.73270998  0.68652463    -0.19500
H1617       H  0.71884599  0.77335245  0.67377736     0.16200
F1618       F  0.77084602  0.78938395  0.72815287    -0.23200
H1619       H  0.73138365  0.74889715  0.74065678     0.18000
C1620       C  0.70395036  0.68764192  0.73107293     0.26000
C1621       C  0.68861259  0.66604805  0.74225905    -0.11700
C1622       C  0.65712642  0.66998027  0.74666632    -0.25800
C1623       C  0.64069193  0.69502936  0.73878976     0.36900
C1624       C  0.65616474  0.71670068  0.72766300    -0.27400
F1625       F  0.73465593  0.68380825  0.72740836    -0.19500
H1626       H  0.70158750  0.64676483  0.74793045     0.16200
F1627       F  0.61028614  0.69992153  0.74288939    -0.23200
H1628       H  0.64370907  0.73675062  0.72254458     0.18000
C1629       C  0.78712155  0.70570594  0.61760045    -0.27300
C1630       C  0.81263365  0.68554585  0.61790836     0.06300
C1631       C  0.83719870  0.69130796  0.63028144     0.26000
C1632       C  0.83677802  0.71759434  0.64160215    -0.11800
C1633       C  0.81205932  0.73870279  0.64062622    -0.25700
C1634       C  0.78668951  0.73206975  0.62893654     0.36800
C1635       C  0.81604400  0.66158363  0.60343594     0.06300
F1636       F  0.86270076  0.67284092  0.63040917    -0.19500
H1637       H  0.85654701  0.72218135  0.65048789     0.16200
F1638       F  0.76172061  0.75120399  0.62825502    -0.23200
H1639       H  0.76804879  0.70152569  0.60811875     0.18000
C1640       C  0.82288421  0.63063747  0.60800004     0.26000
C1641       C  0.83227396  0.60991817  0.59412748    -0.11700
C1642       C  0.83536377  0.62003845  0.57566988    -0.25800
C1643       C  0.82637687  0.65039234  0.57098422     0.36900
C1644       C  0.81661012  0.67088743  0.58478490    -0.27400
F1645       F  0.82185114  0.62094116  0.62593291    -0.19500
H1646       H  0.83896556  0.58657695  0.59799292     0.16200
F1647       F  0.82814544  0.66062230  0.55317507    -0.23200
H1648       H  0.81137212  0.69467131  0.58104880     0.18000
C1649       C  0.28280851  0.88035804  0.48623042    -0.27300
C1650       C  0.27473628  0.85195252  0.49456528     0.06300
C1651       C  0.29465469  0.82639728  0.49222008     0.26000
C1652       C  0.32215434  0.82942878  0.48188736    -0.11800
C1653       C  0.33027011  0.85788226  0.47350941    -0.25700
C1654       C  0.31014434  0.88338250  0.47580678     0.36800
C1655       C  0.24557913  0.84936824  0.50565196     0.06300
F1656       F  0.28783828  0.79862756  0.50019348    -0.19500
H1657       H  0.33694726  0.80931178  0.48028591     0.16200
F1658       F  0.31677231  0.91136238  0.46804680    -0.23200
H1659       H  0.26766880  0.90026266  0.48763282     0.18000
C1660       C  0.23876357  0.87118156  0.51963180     0.26000
C1661       C  0.21082521  0.86937469  0.52955727    -0.11700
C1662       C  0.18888629  0.84583950  0.52580458    -0.25800
C1663       C  0.19594735  0.82370696  0.51194519     0.36900
C1664       C  0.22399646  0.82553213  0.50203044    -0.27400
F1665       F  0.25933243  0.89410636  0.52387468    -0.19500
H1666       H  0.20632642  0.88668518  0.54014847     0.16200
F1667       F  0.17571580  0.80047228  0.50775366    -0.23200
H1668       H  0.22859290  0.80861905  0.49122288     0.18000
C1669       C  0.99519884  0.98580316  0.49147041    -0.27300
C1670       C  0.00666063  0.95881923  0.48292571     0.06300
C1671       C  0.99767825  0.95181776  0.46459511     0.26000
C1672       C  0.97851860  0.97216297  0.45484200    -0.11800
C1673       C  0.96841302  0.99990543  0.46311529    -0.25700
C1674       C  0.97645794  0.00633520  0.48164439     0.36800
C1675       C  0.02793492  0.93829734  0.49328363     0.06300
F1676       F  0.00851480  0.92609103  0.45581983    -0.19500
H1677       H  0.97269812  0.96687749  0.44054829     0.16200
F1678       F  0.96621942  0.03244765  0.49027298    -0.23200
H1679       H  0.00096986  0.99111913  0.50576507     0.18000
C1680       C  0.05320205  0.95074276  0.50325168     0.26000
C1681       C  0.07174016  0.93147783  0.51412410    -0.11700
C1682       C  0.06569440  0.89945531  0.51506066    -0.25800
C1683       C  0.04116564  0.88684026  0.50446037     0.36900
C1684       C  0.02240992  0.90618706  0.49380190    -0.27400
F1685       F  0.05992905  0.98156226  0.50253275    -0.19500
H1686       H  0.09056020  0.94172010  0.52203561     0.16200
F1687       F  0.03414707  0.85607493  0.50509751    -0.23200
H1688       H  0.00286810  0.89615503  0.48644317     0.18000
C1689       C  0.14968581  0.74060859  0.60562710    -0.27300
C1690       C  0.13662685  0.74716049  0.62305029     0.06300
C1691       C  0.12386292  0.77654064  0.62653181     0.26000
C1692       C  0.12341322  0.79881370  0.61241940    -0.11800
C1693       C  0.13491248  0.79156881  0.59465460    -0.25700
C1694       C  0.14853751  0.76248903  0.59142924     0.36800
C1695       C  0.13507978  0.72221049  0.63689691     0.06300
F1696       F  0.11107379  0.78325217  0.64331831    -0.19500
H1697       H  0.11226164  0.82093378  0.61499466     0.16200
F1698       F  0.15967358  0.75486778  0.57436123    -0.23200
H1699       H  0.15950924  0.71794365  0.60278934     0.18000
C1700       C  0.10637057  0.70884478  0.64182546     0.26000
C1701       C  0.10558736  0.68135144  0.65211130    -0.11700
C1702       C  0.13340548  0.66687527  0.65726353    -0.25800
C1703       C  0.16196779  0.68128342  0.65326601     0.36900
C1704       C  0.16273856  0.70876955  0.64310757    -0.27400
F1705       F  0.07933249  0.72101968  0.63550183    -0.19500
H1706       H  0.08341724  0.67042661  0.65507366     0.16200
F1707       F  0.18913014  0.66837461  0.65882423    -0.23200
H1708       H  0.18495896  0.71893718  0.63940524     0.18000
C1709       C  0.98964298  0.87338505  0.60274780    -0.27300
C1710       C  0.96931588  0.84793933  0.60197730     0.06300
C1711       C  0.97635224  0.82282373  0.59023354     0.26000
C1712       C  0.00383566  0.82294469  0.57975766    -0.11800
C1713       C  0.02469837  0.84816885  0.58077519    -0.25700
C1714       C  0.01694959  0.87371538  0.59220412     0.36800
C1715       C  0.94173367  0.84705841  0.61423904     0.06300
F1716       F  0.95724185  0.79768181  0.58946615    -0.19500
H1717       H  0.00906971  0.80297829  0.57114821     0.16200
F1718       F  0.03574027  0.89904891  0.59335506    -0.23200
H1719       H  0.98441614  0.89297178  0.61167899     0.18000
C1720       C  0.94543720  0.84558519  0.63358853     0.26000
C1721       C  0.91947982  0.84297044  0.64517995    -0.11700
C1722       C  0.88931551  0.84224548  0.63771680    -0.25800
C1723       C  0.88560283  0.84497697  0.61832998     0.36900
C1724       C  0.91169476  0.84706281  0.60670642    -0.27400
F1725       F  0.97426081  0.84539968  0.64121687    -0.19500
H1726       H  0.92302725  0.84087968  0.66001213     0.16200
F1727       F  0.85693683  0.84405837  0.61051123    -0.23200
H1728       H  0.90851598  0.84833795  0.59180970     0.18000
loop_ 
_geom_bond_atom_site_label_1 
_geom_bond_atom_site_label_2 
_geom_bond_distance 
_geom_bond_site_symmetry_2 
_ccdc_geom_bond_type 
O1           Ni9   1.928       .  S
O1           C11   1.284       .  A
O2           Ni9   1.926       .  S
O2           C12   1.283       .  A
O3           Ni9   1.901       .  S
O3           C13   1.278       .  A
O4           Ni9   1.902       .  S
O4           C14   1.278       .  A
O5          Ni10   1.916       .  S
O5           C14   1.282       .  A
O6          Ni10   1.918       .  S
O6           C13   1.281       .  A
O7          Ni10   1.919       .  S
O7           C12   1.282       .  A
O8          Ni10   1.911       .  S
O8           C11   1.280       .  A
Ni9         Ni10   2.386       .  S
C11        C1713   1.487       .  S
C12        C1662   1.492       .  S
C13        C1693   1.464       .  S
C14        C1682   1.475       .  S
O15         Ni23   1.908       .  S
O15          C25   1.280       .  A
O16         Ni23   1.904       .  S
O16          C26   1.279       .  A
O17         Ni23   1.904       .  S
O17          C27   1.280       .  A
O18         Ni23   1.909       .  S
O18          C28   1.280       .  A
O19         Ni24   1.925       .  S
O19          C28   1.283       .  A
O20         Ni24   1.918       .  S
O20          C27   1.281       .  A
O21         Ni24   1.923       .  S
O21          C26   1.283       .  A
O22         Ni24   1.913       .  S
O22          C25   1.281       .  A
Ni23        Ni24   2.388       .  S
C25        C1633   1.472       .  S
C26        C1593   1.482       .  S
C27        C1613   1.469       .  S
C28        C1722   1.481       .  S
O29         Ni37   1.911       .  S
O29          C39   1.279       .  A
O30         Ni37   1.904       .  S
O30          C40   1.280       .  A
O31         Ni37   1.914       .  S
O31          C41   1.281       .  A
O32         Ni37   1.912       .  S
O32          C42   1.282       .  A
O33         Ni38   1.901       .  S
O33          C42   1.278       .  A
O34         Ni38   1.894       .  S
O34          C41   1.277       .  A
O35         Ni38   1.905       .  S
O35          C40   1.280       .  A
O36         Ni38   1.906       .  S
O36          C39   1.280       .  A
Ni37        Ni38   2.391       .  S
C39        C1702   1.463       .  S
C40        C1533   1.472       .  S
C41        C1553   1.463       .  S
C42        C1582   1.467       .  S
O43         Ni51   1.918       .  S
O43          C53   1.282       .  A
O44         Ni51   1.913       .  S
O44          C54   1.281       .  A
O45         Ni51   1.905       .  S
O45          C55   1.280       .  A
O46         Ni51   1.905       .  S
O46          C56   1.280       .  A
O47         Ni52   1.911       .  S
O47          C56   1.280       .  A
O48         Ni52   1.917       .  S
O48          C55   1.281       .  A
O49         Ni52   1.901       .  S
O49          C54   1.279       .  A
O50         Ni52   1.899       .  S
O50          C53   1.278       .  A
Ni51        Ni52   2.389       .  S
C53        C1573   1.472       .  S
C54        C1502   1.468       .  S
C55        C1642   1.470       .  S
C56        C1513   1.475       .  S
O57         Ni65   1.931       .  S
O57          C67   1.285       .  A
O58         Ni65   1.928       .  S
O58          C68   1.284       .  A
O59         Ni65   1.897       .  S
O59          C69   1.278       .  A
O60         Ni65   1.898       .  S
O60          C70   1.276       .  A
O61         Ni66   1.922       .  S
O61          C70   1.284       .  A
O62         Ni66   1.929       .  S
O62          C69   1.283       .  A
O63         Ni66   1.898       .  S
O63          C68   1.277       .  A
O64         Ni66   1.901       .  S
O64          C67   1.278       .  A
Ni65        Ni66   2.386       .  S
C67        C1482   1.484       .  S
C68        C1433   1.481       .  S
C69        C1453   1.480       .  S
C70        C1622   1.473       .  S
O71         Ni79   1.921       .  S
O71          C81   1.283       .  A
O72         Ni79   1.923       .  S
O72          C82   1.282       .  A
O73         Ni79   1.914       .  S
O73          C83   1.281       .  A
O74         Ni79   1.912       .  S
O74          C84   1.280       .  A
O75         Ni80   1.918       .  S
O75          C84   1.282       .  A
O76         Ni80   1.913       .  S
O76          C83   1.281       .  A
O77         Ni80   1.916       .  S
O77          C82   1.281       .  A
O78         Ni80   1.909       .  S
O78          C81   1.280       .  A
Ni79        Ni80   2.387       .  S
C81        C1462   1.482       .  S
C82        C1382   1.480       .  S
C83        C1393   1.480       .  S
C84        C1413   1.477       .  S
O85         Ni93   1.917       .  S
O85          C95   1.282       .  A
O86         Ni93   1.915       .  S
O86          C96   1.281       .  A
O87         Ni93   1.898       .  S
O87          C97   1.279       .  A
O88         Ni93   1.896       .  S
O88          C98   1.277       .  A
O89         Ni94   1.918       .  S
O89          C98   1.283       .  A
O90         Ni94   1.922       .  S
O90          C97   1.282       .  A
O91         Ni94   1.918       .  S
O91          C96   1.282       .  A
O92         Ni94   1.916       .  S
O92          C95   1.281       .  A
Ni93        Ni94   2.385       .  S
C95        C1422   1.484       .  S
C96        C1333   1.485       .  S
C97        C1353   1.476       .  S
C98        C1562   1.475       .  S
O99        Ni107   1.918       .  S
O99         C109   1.282       .  A
O100       Ni107   1.921       .  S
O100        C110   1.282       .  A
O101       Ni107   1.909       .  S
O101        C111   1.280       .  A
O102       Ni107   1.908       .  S
O102        C112   1.280       .  A
O103       Ni108   1.922       .  S
O103        C112   1.282       .  A
O104       Ni108   1.919       .  S
O104        C111   1.282       .  A
O105       Ni108   1.921       .  S
O105        C110   1.283       .  A
O106       Ni108   1.912       .  S
O106        C109   1.281       .  A
Ni107      Ni108   2.385       .  S
C109       C1362   1.482       .  S
C110       C1302   1.489       .  S
C111       C1313   1.481       .  S
C112       C1473   1.480       .  S
O113       Ni121   1.928       .  S
O113        C123   1.284       .  A
O114       Ni121   1.928       .  S
O114        C124   1.284       .  A
O115       Ni121   1.901       .  S
O115        C125   1.278       .  A
O116       Ni121   1.904       .  S
O116        C126   1.279       .  A
O117       Ni122   1.920       .  S
O117        C126   1.282       .  A
O118       Ni122   1.920       .  S
O118        C125   1.282       .  A
O119       Ni122   1.910       .  S
O119        C124   1.280       .  A
O120       Ni122   1.909       .  S
O120        C123   1.281       .  A
Ni121      Ni122   2.386       .  S
C123       C1273   1.487       .  S
C124       C1242   1.487       .  S
C125       C1262   1.476       .  S
C126       C1402   1.474       .  S
O127       Ni135   1.922       .  S
O127        C137   1.283       .  A
O128       Ni135   1.917       .  S
O128        C138   1.282       .  A
O129       Ni135   1.906       .  S
O129        C139   1.280       .  A
O130       Ni135   1.905       .  S
O130        C140   1.279       .  A
O131       Ni136   1.927       .  S
O131        C140   1.283       .  A
O132       Ni136   1.923       .  S
O132        C139   1.283       .  A
O133       Ni136   1.916       .  S
O133        C138   1.281       .  A
O134       Ni136   1.906       .  S
O134        C137   1.279       .  A
Ni135      Ni136   2.387       .  S
C137       C1213   1.475       .  S
C138       C1173   1.483       .  S
C139       C1202   1.478       .  S
C140       C1282   1.477       .  S
O141       Ni149   1.924       .  S
O141        C151   1.284       .  A
O142       Ni149   1.921       .  S
O142        C152   1.283       .  A
O143       Ni149   1.904       .  S
O143        C153   1.279       .  A
O144       Ni149   1.910       .  S
O144        C154   1.279       .  A
O145       Ni150   1.936       .  S
O145        C154   1.285       .  A
O146       Ni150   1.932       .  S
O146        C153   1.284       .  A
O147       Ni150   1.911       .  S
O147        C152   1.280       .  A
O148       Ni150   1.898       .  S
O148        C151   1.277       .  A
Ni149      Ni150   2.386       .  S
C151       C1253   1.476       .  S
C152       C1113   1.485       .  S
C153       C1133   1.481       .  S
C154       C1153   1.483       .  S
O155       Ni163   1.931       .  S
O155        C165   1.284       .  A
O156       Ni163   1.929       .  S
O156        C166   1.284       .  A
O157       Ni163   1.906       .  S
O157        C167   1.279       .  A
O158       Ni163   1.908       .  S
O158        C168   1.279       .  A
O159       Ni164   1.920       .  S
O159        C168   1.282       .  A
O160       Ni164   1.920       .  S
O160        C167   1.281       .  A
O161       Ni164   1.917       .  S
O161        C166   1.282       .  A
O162       Ni164   1.917       .  S
O162        C165   1.282       .  A
Ni163      Ni164   2.385       .  S
C165       C1162   1.493       .  S
C166       C1093   1.491       .  S
C167       C1222   1.471       .  S
C168       C1322   1.473       .  S
O169       Ni177   1.921       .  S
O169        C179   1.283       .  A
O170       Ni177   1.924       .  S
O170        C180   1.283       .  A
O171       Ni177   1.905       .  S
O171        C181   1.279       .  A
O172       Ni177   1.905       .  S
O172        C182   1.278       .  A
O173       Ni178   1.928       .  S
O173        C182   1.285       .  A
O174       Ni178   1.928       .  S
O174        C181   1.283       .  A
O175       Ni178   1.911       .  S
O175        C180   1.280       .  A
O176       Ni178   1.903       .  S
O176        C179   1.278       .  A
Ni177      Ni178   2.386       .  S
C179       C1082   1.479       .  S
C180       C1042   1.482       .  S
C181       C1053   1.478       .  S
C182       C1142   1.482       .  S
O183       Ni191   1.923       .  S
O183        C193   1.284       .  A
O184       Ni191   1.917       .  S
O184        C194   1.282       .  A
O185       Ni191   1.906       .  S
O185        C195   1.279       .  A
O186       Ni191   1.909       .  S
O186        C196   1.280       .  A
O187       Ni192   1.907       .  S
O187        C196   1.280       .  A
O188       Ni192   1.907       .  S
O188        C195   1.280       .  A
O189       Ni192   1.913       .  S
O189        C194   1.281       .  A
O190       Ni192   1.909       .  S
O190        C193   1.280       .  A
Ni191      Ni192   2.389       .  S
C193       C1062   1.483       .  S
C194        C993   1.479       .  S
C195       C1522   1.462       .  S
C196       C1013   1.469       .  S
O197       Ni205   1.923       .  S
O197        C207   1.284       .  A
O198       Ni205   1.922       .  S
O198        C208   1.283       .  A
O199       Ni205   1.898       .  S
O199        C209   1.278       .  A
O200       Ni205   1.903       .  S
O200        C210   1.277       .  A
O201       Ni206   1.926       .  S
O201        C210   1.285       .  A
O202       Ni206   1.927       .  S
O202        C209   1.284       .  A
O203       Ni206   1.901       .  S
O203        C208   1.278       .  A
O204       Ni206   1.895       .  S
O204        C207   1.277       .  A
Ni205      Ni206   2.386       .  S
C207       C1022   1.476       .  S
C208        C962   1.481       .  S
C209        C973   1.474       .  S
C210       C1193   1.482       .  S
O211       Ni219   1.922       .  S
O211        C221   1.283       .  A
O212       Ni219   1.916       .  S
O212        C222   1.282       .  A
O213       Ni219   1.907       .  S
O213        C223   1.280       .  A
O214       Ni219   1.906       .  S
O214        C224   1.280       .  A
O215       Ni220   1.914       .  S
O215        C224   1.281       .  A
O216       Ni220   1.914       .  S
O216        C223   1.281       .  A
O217       Ni220   1.906       .  S
O217        C222   1.280       .  A
O218       Ni220   1.905       .  S
O218        C221   1.279       .  A
Ni219      Ni220   2.388       .  S
C221        C982   1.479       .  S
C222        C933   1.479       .  S
C223       C1673   1.470   1_545  S
C224       C1073   1.472       .  S
O225       Ni233   1.923       .  S
O225        C235   1.284       .  A
O226       Ni233   1.922       .  S
O226        C236   1.282       .  A
O227       Ni233   1.903       .  S
O227        C237   1.279       .  A
O228       Ni233   1.902       .  S
O228        C238   1.279       .  A
O229       Ni234   1.922       .  S
O229        C238   1.283       .  A
O230       Ni234   1.926       .  S
O230        C237   1.283       .  A
O231       Ni234   1.903       .  S
O231        C236   1.280       .  A
O232       Ni234   1.894       .  S
O232        C235   1.276       .  A
Ni233      Ni234   2.387       .  S
C235        C913   1.473       .  S
C236       C1442   1.481       .  S
C237        C893   1.476       .  S
C238        C873   1.478       .  S
O239       Ni247   1.926       .  S
O239        C249   1.283       .  A
O240       Ni247   1.923       .  S
O240        C250   1.283       .  A
O241       Ni247   1.904       .  S
O241        C251   1.278       .  A
O242       Ni247   1.908       .  S
O242        C252   1.280       .  A
O243       Ni248   1.923       .  S
O243        C252   1.283       .  A
O244       Ni248   1.917       .  S
O244        C251   1.281       .  A
O245       Ni248   1.907       .  S
O245        C250   1.280       .  A
O246       Ni248   1.905       .  S
O246        C249   1.280       .  A
Ni247      Ni248   2.388       .  S
C249        C902   1.479       .  S
C250       C1002   1.482       .  S
C251        C842   1.464       .  S
C252        C853   1.478       .  S
O253       Ni261   1.915       .  S
O253        C263   1.281       .  A
O254       Ni261   1.909       .  S
O254        C264   1.280       .  A
O255       Ni261   1.900       .  S
O255        C265   1.279       .  A
O256       Ni261   1.901       .  S
O256        C266   1.278       .  A
O257       Ni262   1.914       .  S
O257        C266   1.281       .  A
O258       Ni262   1.919       .  S
O258        C265   1.281       .  A
O259       Ni262   1.925       .  S
O259        C264   1.283       .  A
O260       Ni262   1.919       .  S
O260        C263   1.283       .  A
Ni261      Ni262   2.388       .  S
C263        C862   1.485       .  S
C264       C1342   1.481   1_545  S
C265        C813   1.471       .  S
C266        C793   1.469       .  S
O267       Ni275   1.919       .  S
O267        C277   1.282       .  A
O268       Ni275   1.913       .  S
O268        C278   1.281       .  A
O269       Ni275   1.902       .  S
O269        C279   1.279       .  A
O270       Ni275   1.902       .  S
O270        C280   1.280       .  A
O271       Ni276   1.914       .  S
O271        C280   1.281       .  A
O272       Ni276   1.916       .  S
O272        C279   1.282       .  A
O273       Ni276   1.906       .  S
O273        C278   1.279       .  A
O274       Ni276   1.903       .  S
O274        C277   1.279       .  A
Ni275      Ni276   2.389       .  S
C277        C822   1.477       .  S
C278        C942   1.470       .  S
C279        C773   1.471   1_545  S
C280        C922   1.476       .  S
O281       Ni289   1.927       .  S
O281        C291   1.284       .  A
O282       Ni289   1.926       .  S
O282        C292   1.283       .  A
O283       Ni289   1.899       .  S
O283        C293   1.278       .  A
O284       Ni289   1.901       .  S
O284        C294   1.278       .  A
O285       Ni290   1.925       .  S
O285        C294   1.284       .  A
O286       Ni290   1.919       .  S
O286        C293   1.283       .  A
O287       Ni290   1.883       .  S
O287        C292   1.274       .  A
O288       Ni290   1.882       .  S
O288        C291   1.275       .  A
Ni289      Ni290   2.388       .  S
C291        C762   1.472       .  S
C292       C1542   1.464       .  S
C293        C802   1.475       .  S
C294        C733   1.482       .  S
O295       Ni303   1.924       .  S
O295        C305   1.283       .  A
O296       Ni303   1.927       .  S
O296        C306   1.283       .  A
O297       Ni303   1.902       .  S
O297        C307   1.279       .  A
O298       Ni303   1.904       .  S
O298        C308   1.279       .  A
O299       Ni304   1.922       .  S
O299        C308   1.283       .  A
O300       Ni304   1.920       .  S
O300        C307   1.282       .  A
O301       Ni304   1.908       .  S
O301        C306   1.281       .  A
O302       Ni304   1.906       .  S
O302        C305   1.279       .  A
Ni303      Ni304   2.386       .  S
C305        C742   1.479       .  S
C306       C1233   1.487       .  S
C307        C713   1.476       .  S
C308        C693   1.477       .  S
O309       Ni317   1.916       .  S
O309        C319   1.282       .  A
O310       Ni317   1.912       .  S
O310        C320   1.281       .  A
O311       Ni317   1.900       .  S
O311        C321   1.277       .  A
O312       Ni317   1.904       .  S
O312        C322   1.280       .  A
O313       Ni318   1.924       .  S
O313        C322   1.283       .  A
O314       Ni318   1.923       .  S
O314        C321   1.282       .  A
O315       Ni318   1.914       .  S
O315        C320   1.281       .  A
O316       Ni318   1.907       .  S
O316        C319   1.279       .  A
Ni317      Ni318   2.388       .  S
C319        C722   1.479       .  S
C320       C1602   1.475       .  S
C321        C882   1.462       .  S
C322        C673   1.483       .  S
O323       Ni331   1.915       .  S
O323        C333   1.282       .  A
O324       Ni331   1.916       .  S
O324        C334   1.281       .  A
O325       Ni331   1.902       .  S
O325        C335   1.280       .  A
O326       Ni331   1.908       .  S
O326        C336   1.280       .  A
O327       Ni332   1.916       .  S
O327        C336   1.282       .  A
O328       Ni332   1.913       .  S
O328        C335   1.280       .  A
O329       Ni332   1.922       .  S
O329        C334   1.283       .  A
O330       Ni332   1.920       .  S
O330        C333   1.282       .  A
Ni331      Ni332   2.388       .  S
C333        C682   1.481       .  S
C334       C1102   1.483       .  S
C335        C753   1.469       .  S
C336        C653   1.474       .  S
O337       Ni345   1.918       .  S
O337        C347   1.283       .  A
O338       Ni345   1.914       .  S
O338        C348   1.281       .  A
O339       Ni345   1.897       .  S
O339        C349   1.276       .  A
O340       Ni345   1.898       .  S
O340        C350   1.278       .  A
O341       Ni346   1.919       .  S
O341        C350   1.281       .  A
O342       Ni346   1.915       .  S
O342        C349   1.281       .  A
O343       Ni346   1.915       .  S
O343        C348   1.281       .  A
O344       Ni346   1.905       .  S
O344        C347   1.279       .  A
Ni345      Ni346   2.390       .  S
C347        C642   1.478       .  S
C348       C1182   1.481       .  S
C349        C602   1.456       .  S
C350        C613   1.470       .  S
O351       Ni359   1.910       .  S
O351        C361   1.281       .  A
O352       Ni359   1.905       .  S
O352        C362   1.280       .  A
O353       Ni359   1.907       .  S
O353        C363   1.280       .  A
O354       Ni359   1.906       .  S
O354        C364   1.280       .  A
O355       Ni360   1.913       .  S
O355        C364   1.281       .  A
O356       Ni360   1.915       .  S
O356        C363   1.280       .  A
O357       Ni360   1.913       .  S
O357        C362   1.281       .  A
O358       Ni360   1.908       .  S
O358        C361   1.280       .  A
Ni359      Ni360   2.388       .  S
C361        C622   1.475       .  S
C362       C1493   1.477       .  S
C363        C573   1.468       .  S
C364        C833   1.479       .  S
O365       Ni373   1.925       .  S
O365        C375   1.283       .  A
O366       Ni373   1.923       .  S
O366        C376   1.283       .  A
O367       Ni373   1.902       .  S
O367        C377   1.279       .  A
O368       Ni373   1.904       .  S
O368        C378   1.279       .  A
O369       Ni374   1.915       .  S
O369        C378   1.282       .  A
O370       Ni374   1.916       .  S
O370        C377   1.281       .  A
O371       Ni374   1.920       .  S
O371        C376   1.282       .  A
O372       Ni374   1.918       .  S
O372        C375   1.282       .  A
Ni373      Ni374   2.386       .  S
C375        C553   1.489       .  S
C376       C1653   1.489       .  S
C377        C633   1.470       .  S
C378        C782   1.476       .  S
O379       Ni387   1.915       .  S
O379        C389   1.282       .  A
O380       Ni387   1.917       .  S
O380        C390   1.281       .  A
O381       Ni387   1.914       .  S
O381        C391   1.281       .  A
O382       Ni387   1.912       .  S
O382        C392   1.281       .  A
O383       Ni388   1.928       .  S
O383        C392   1.283       .  A
O384       Ni388   1.922       .  S
O384        C391   1.283       .  A
O385       Ni388   1.917       .  S
O385        C390   1.281       .  A
O386       Ni388   1.908       .  S
O386        C389   1.280       .  A
Ni387      Ni388   2.386       .  S
C389        C582   1.477       .  S
C390       C1122   1.479       .  S
C391        C542   1.484       .  S
C392        C562   1.483       .  S
O393       Ni401   1.931       .  S
O393        C403   1.285       .  A
O394       Ni401   1.928       .  S
O394        C404   1.284       .  A
O395       Ni401   1.901       .  S
O395        C405   1.278       .  A
O396       Ni401   1.897       .  S
O396        C406   1.277       .  A
O397       Ni402   1.921       .  S
O397        C406   1.283       .  A
O398       Ni402   1.924       .  S
O398        C405   1.283       .  A
O399       Ni402   1.898       .  S
O399        C404   1.278       .  A
O400       Ni402   1.897       .  S
O400        C403   1.277       .  A
Ni401      Ni402   2.385       .  S
C403        C522   1.482       .  S
C404        C953   1.480       .  S
C405        C493   1.481       .  S
C406        C593   1.477       .  S
O407       Ni415   1.932       .  S
O407        C417   1.285       .  A
O408       Ni415   1.933       .  S
O408        C418   1.284       .  A
O409       Ni415   1.899       .  S
O409        C419   1.278       .  A
O410       Ni415   1.902       .  S
O410        C420   1.279       .  A
O411       Ni416   1.926       .  S
O411        C420   1.284       .  A
O412       Ni416   1.929       .  S
O412        C419   1.284       .  A
O413       Ni416   1.910       .  S
O413        C418   1.280       .  A
O414       Ni416   1.899       .  S
O414        C417   1.278       .  A
Ni415      Ni416   2.386       .  S
C417        C502   1.483       .  S
C418       C1293   1.482       .  S
C419        C662   1.482       .  S
C420        C482   1.480       .  S
O421       Ni429   1.924       .  S
O421        C431   1.283       .  A
O422       Ni429   1.922       .  S
O422        C432   1.282       .  A
O423       Ni429   1.906       .  S
O423        C433   1.279       .  A
O424       Ni429   1.906       .  S
O424        C434   1.280       .  A
O425       Ni430   1.920       .  S
O425        C434   1.282       .  A
O426       Ni430   1.920       .  S
O426        C433   1.282       .  A
O427       Ni430   1.921       .  S
O427        C432   1.283       .  A
O428       Ni430   1.916       .  S
O428        C431   1.281       .  A
Ni429      Ni430   2.386       .  S
C431        C453   1.486       .  S
C432       C1373   1.488       .  S
C433        C702   1.474       .  S
C434        C513   1.480       .  S
O435       Ni443   1.929       .  S
O435        C445   1.284       .  A
O436       Ni443   1.926       .  S
O436        C446   1.284       .  A
O437       Ni443   1.900       .  S
O437        C447   1.278       .  A
O438       Ni443   1.902       .  S
O438        C448   1.279       .  A
O439       Ni444   1.935       .  S
O439        C448   1.285       .  A
O440       Ni444   1.937       .  S
O440        C447   1.285       .  A
O441       Ni444   1.914       .  S
O441        C446   1.280       .  A
O442       Ni444   1.903       .  S
O442        C445   1.278       .  A
Ni443      Ni444   2.386       .  S
C445        C473   1.484       .  S
C446       C1033   1.481       .  S
C447        C462   1.480       .  S
C448        C533   1.484       .  S
C449        C450   1.404       .  A
C449        C454   1.400   1_655  A
C449        H459   1.083       .  S
C450        C455   1.485       .  S
C450        C451   1.407       .  A
C451        C452   1.399       .  A
C451        F456   1.357       .  S
C452        C453   1.406   1_655  A
C452        H457   1.082       .  S
C453        C454   1.411       .  A
C454        F458   1.358       .  S
C455        C460   1.409       .  A
C455        C464   1.403       .  A
C460        C461   1.404       .  A
C460        F465   1.357       .  S
C461        C462   1.405       .  A
C461        H466   1.083       .  S
C462        C463   1.408       .  A
C463        C464   1.395       .  A
C463        F467   1.358       .  S
C464        H468   1.083       .  S
C469        C470   1.401       .  A
C469        C474   1.394       .  A
C469        H479   1.083       .  S
C470        C475   1.482       .  S
C470        C471   1.408       .  A
C471        C472   1.401       .  A
C471        F476   1.357       .  S
C472        C473   1.406       .  A
C472        H477   1.083       .  S
C473        C474   1.411       .  A
C474        F478   1.357       .  S
C475        C480   1.406       .  A
C475        C484   1.405       .  A
C480        C481   1.394       .  A
C480        F485   1.358       .  S
C481        C482   1.406       .  A
C481        H486   1.083       .  S
C482        C483   1.409       .  A
C483        C484   1.401       .  A
C483        F487   1.357       .  S
C484        H488   1.082       .  S
C489        C490   1.402       .  A
C489        C494   1.399       .  A
C489        H499   1.083       .  S
C490        C495   1.475   1_455  S
C490        C491   1.403       .  A
C491        C492   1.394       .  A
C491        F496   1.358   1_455  S
C492        C493   1.408       .  A
C492        H497   1.082       .  S
C493        C494   1.409       .  A
C494        F498   1.357       .  S
C495        C500   1.401       .  A
C495        C504   1.403       .  A
C500        C501   1.394       .  A
C500        F505   1.358       .  S
C501        C502   1.409       .  A
C501        H506   1.083       .  S
C502        C503   1.409       .  A
C503        C504   1.400       .  A
C503        F507   1.357       .  S
C504        H508   1.084   1_655  S
C509        C510   1.402       .  A
C509        C514   1.401       .  A
C509        H519   1.083       .  S
C510        C515   1.473       .  S
C510        C511   1.402       .  A
C511        C512   1.392       .  A
C511        F516   1.358       .  S
C512        C513   1.405       .  A
C512        H517   1.083       .  S
C513        C514   1.411       .  A
C514        F518   1.357       .  S
C515        C520   1.404       .  A
C515        C524   1.398       .  A
C520        C521   1.402       .  A
C520        F525   1.357       .  S
C521        C522   1.407       .  A
C521        H526   1.082       .  S
C522        C523   1.412       .  A
C523        C524   1.392       .  A
C523        F527   1.358       .  S
C524        H528   1.083       .  S
C529        C530   1.409       .  A
C529        C534   1.405       .  A
C529        H539   1.083       .  S
C530        C535   1.489       .  S
C530        C531   1.405       .  A
C531        C532   1.394       .  A
C531        F536   1.358       .  S
C532        C533   1.407       .  A
C532        H537   1.083       .  S
C533        C534   1.407       .  A
C534        F538   1.357       .  S
C535        C540   1.408       .  A
C535        C544   1.406       .  A
C540        C541   1.401       .  A
C540        F545   1.357       .  S
C541        C542   1.407       .  A
C541        H546   1.083       .  S
C542        C543   1.408       .  A
C543        C544   1.397       .  A
C543        F547   1.358       .  S
C544        H548   1.083       .  S
C549        C550   1.405       .  A
C549        C554   1.401       .  A
C549        H559   1.083       .  S
C550        C555   1.489       .  S
C550        C551   1.407       .  A
C551        C552   1.399       .  A
C551        F556   1.358       .  S
C552        C553   1.407       .  A
C552        H557   1.083       .  S
C553        C554   1.410       .  A
C554        F558   1.357       .  S
C555        C560   1.409       .  A
C555        C564   1.405       .  A
C560        C561   1.403       .  A
C560        F565   1.357       .  S
C561        C562   1.406       .  A
C561        H566   1.083       .  S
C562        C563   1.407       .  A
C563        C564   1.397       .  A
C563        F567   1.358       .  S
C564        H568   1.083       .  S
C569        C570   1.405       .  A
C569        C574   1.396       .  A
C569        H579   1.083       .  S
C570        C575   1.478       .  S
C570        C571   1.407       .  A
C571        C572   1.394       .  A
C571        F576   1.357       .  S
C572        C573   1.402       .  A
C572        H577   1.084       .  S
C573        C574   1.405       .  A
C574        F578   1.358       .  S
C575        C580   1.405       .  A
C575        C584   1.404       .  A
C580        C581   1.398       .  A
C580        F585   1.358       .  S
C581        C582   1.408       .  A
C581        H586   1.083       .  S
C582        C583   1.407       .  A
C583        C584   1.393       .  A
C583        F587   1.357       .  S
C584        H588   1.084       .  S
C589        C590   1.400       .  A
C589        C594   1.389       .  A
C589        H599   1.082       .  S
C590        C595   1.475       .  S
C590        C591   1.407       .  A
C591        C592   1.398       .  A
C591        F596   1.358       .  S
C592        C593   1.406       .  A
C592        H597   1.082       .  S
C593        C594   1.410       .  A
C594        F598   1.358       .  S
C595        C600   1.407       .  A
C595        C604   1.406       .  A
C600        C601   1.393       .  A
C600        F605   1.358       .  S
C601        C602   1.400       .  A
C601        H606   1.083       .  S
C602        C603   1.401       .  A
C603        C604   1.395       .  A
C603        F607   1.357       .  S
C604        H608   1.082       .  S
C609        C610   1.402       .  A
C609        C614   1.398       .  A
C609        H619   1.083       .  S
C610        C615   1.465       .  S
C610        C611   1.401       .  A
C611        C612   1.391       .  A
C611        F616   1.358       .  S
C612        C613   1.404       .  A
C612        H617   1.083       .  S
C613        C614   1.408       .  A
C614        F618   1.357       .  S
C615        C620   1.402       .  A
C615        C624   1.399       .  A
C620        C621   1.394       .  A
C620        F625   1.358       .  S
C621        C622   1.406       .  A
C621        H626   1.083       .  S
C622        C623   1.410       .  A
C623        C624   1.395       .  A
C623        F627   1.357       .  S
C624        H628   1.083       .  S
C629        C630   1.404       .  A
C629        C634   1.397       .  A
C629        H639   1.083       .  S
C630        C635   1.473       .  S
C630        C631   1.404       .  A
C631        C632   1.392       .  A
C631        F636   1.358       .  S
C632        C633   1.403       .  A
C632        H637   1.084       .  S
C633        C634   1.406       .  A
C634        F638   1.357       .  S
C635        C640   1.403       .  A
C635        C644   1.402       .  A
C640        C641   1.396       .  A
C640        F645   1.358       .  S
C641        C642   1.408       .  A
C641        H646   1.083       .  S
C642        C643   1.408       .  A
C643        C644   1.394       .  A
C643        F647   1.357       .  S
C644        H648   1.084       .  S
C649        C650   1.406   1_455  A
C649        C654   1.397       .  A
C649        H659   1.083       .  S
C650        C655   1.482       .  S
C650        C651   1.405   1_565  A
C651        C652   1.396   1_655  A
C651        F656   1.357       .  S
C652        C653   1.405       .  A
C652        H657   1.083       .  S
C653        C654   1.405   1_545  A
C654        F658   1.358       .  S
C655        C660   1.405       .  A
C655        C664   1.405   1_556  A
C660        C661   1.394       .  A
C660        F665   1.358       .  S
C661        C662   1.407   1_556  A
C661        H666   1.083       .  S
C662        C663   1.409       .  A
C663        C664   1.400       .  A
C663        F667   1.357       .  S
C664        H668   1.083       .  S
C669        C670   1.402       .  A
C669        C674   1.400       .  A
C669        H679   1.083       .  S
C670        C675   1.472       .  S
C670        C671   1.400       .  A
C671        C672   1.394       .  A
C671        F676   1.358       .  S
C672        C673   1.408       .  A
C672        H677   1.082       .  S
C673        C674   1.410       .  A
C674        F678   1.357       .  S
C675        C680   1.402       .  A
C675        C684   1.401       .  A
C680        C681   1.396       .  A
C680        F685   1.358       .  S
C681        C682   1.407   1_655  A
C681        H686   1.083       .  S
C682        C683   1.410       .  A
C683        C684   1.399   1_455  A
C683        F687   1.357       .  S
C684        H688   1.083       .  S
C689        C690   1.406   1_655  A
C689        C694   1.398       .  A
C689        H699   1.083       .  S
C690        C695   1.479       .  S
C690        C691   1.403       .  A
C691        C692   1.394   1_455  A
C691        F696   1.358       .  S
C692        C693   1.407       .  A
C692        H697   1.083       .  S
C693        C694   1.407       .  A
C694        F698   1.357       .  S
C695        C700   1.405       .  A
C695        C704   1.404   1_556  A
C700        C701   1.396       .  A
C700        F705   1.358       .  S
C701        C702   1.405   1_556  A
C701        H706   1.083       .  S
C702        C703   1.407       .  A
C703        C704   1.396       .  A
C703        F707   1.358       .  S
C704        H708   1.083       .  S
C709        C710   1.401       .  A
C709        C714   1.393       .  A
C709        H719   1.083       .  S
C710        C715   1.473       .  S
C710        C711   1.404       .  A
C711        C712   1.397       .  A
C711        F716   1.357       .  S
C712        C713   1.406       .  A
C712        H717   1.083       .  S
C713        C714   1.409       .  A
C714        F718   1.358       .  S
C715        C720   1.404       .  A
C715        C724   1.401       .  A
C720        C721   1.394       .  A
C720        F725   1.358       .  S
C721        C722   1.405       .  A
C721        H726   1.082       .  S
C722        C723   1.411       .  A
C723        C724   1.396       .  A
C723        F727   1.357       .  S
C724        H728   1.083       .  S
C729        C730   1.400       .  A
C729        C734   1.394       .  A
C729        H739   1.084       .  S
C730        C735   1.474       .  S
C730        C731   1.403       .  A
C731        C732   1.399       .  A
C731        F736   1.357       .  S
C732        C733   1.407       .  A
C732        H737   1.083       .  S
C733        C734   1.412       .  A
C734        F738   1.358       .  S
C735        C740   1.402   1_455  A
C735        C744   1.403       .  A
C740        C741   1.395       .  A
C740        F745   1.358       .  S
C741        C742   1.407       .  A
C741        H746   1.083       .  S
C742        C743   1.408   1_655  A
C743        C744   1.399       .  A
C743        F747   1.357       .  S
C744        H748   1.083       .  S
C749        C750   1.400       .  A
C749        C754   1.396       .  A
C749        H759   1.083       .  S
C750        C755   1.467       .  S
C750        C751   1.404       .  A
C751        C752   1.390       .  A
C751        F756   1.358       .  S
C752        C753   1.403       .  A
C752        H757   1.084       .  S
C753        C754   1.408       .  A
C754        F758   1.357       .  S
C755        C760   1.398       .  A
C755        C764   1.405       .  A
C760        C761   1.388       .  A
C760        F765   1.358       .  S
C761        C762   1.408       .  A
C761        H766   1.083       .  S
C762        C763   1.406       .  A
C763        C764   1.397       .  A
C763        F767   1.357       .  S
C764        H768   1.084       .  S
C769        C770   1.403       .  A
C769        C774   1.395       .  A
C769        H779   1.083       .  S
C770        C775   1.475       .  S
C770        C771   1.404       .  A
C771        C772   1.395       .  A
C771        F776   1.358       .  S
C772        C773   1.405       .  A
C772        H777   1.083       .  S
C773        C774   1.407       .  A
C774        F778   1.358   1_565  S
C775        C780   1.406       .  A
C775        C784   1.400       .  A
C780        C781   1.396       .  A
C780        F785   1.358       .  S
C781        C782   1.404       .  A
C781        H786   1.083       .  S
C782        C783   1.411       .  A
C783        C784   1.394       .  A
C783        F787   1.358       .  S
C784        H788   1.083       .  S
C789        C790   1.402       .  A
C789        C794   1.393       .  A
C789        H799   1.083       .  S
C790        C795   1.473       .  S
C790        C791   1.405       .  A
C791        C792   1.395       .  A
C791        F796   1.358       .  S
C792        C793   1.404       .  A
C792        H797   1.082       .  S
C793        C794   1.406       .  A
C794        F798   1.358       .  S
C795        C800   1.402       .  A
C795        C804   1.404       .  A
C800        C801   1.392       .  A
C800        F805   1.358       .  S
C801        C802   1.407       .  A
C801        H806   1.084       .  S
C802        C803   1.407       .  A
C803        C804   1.396       .  A
C803        F807   1.357       .  S
C804        H808   1.084       .  S
C809        C810   1.402       .  A
C809        C814   1.392       .  A
C809        H819   1.084       .  S
C810        C815   1.475       .  S
C810        C811   1.405       .  A
C811        C812   1.398       .  A
C811        F816   1.357       .  S
C812        C813   1.405       .  A
C812        H817   1.083       .  S
C813        C814   1.406       .  A
C814        F818   1.358       .  S
C815        C820   1.407       .  A
C815        C824   1.400       .  A
C820        C821   1.397       .  A
C820        F825   1.358       .  S
C821        C822   1.405       .  A
C821        H826   1.083       .  S
C822        C823   1.410       .  A
C823        C824   1.393       .  A
C823        F827   1.357   1_545  S
C824        H828   1.083   1_545  S
C829        C830   1.404       .  A
C829        C834   1.395       .  A
C829        H839   1.083       .  S
C830        C835   1.479       .  S
C830        C831   1.405       .  A
C831        C832   1.395       .  A
C831        F836   1.357       .  S
C832        C833   1.407       .  A
C832        H837   1.083       .  S
C833        C834   1.409       .  A
C834        F838   1.358       .  S
C835        C840   1.408       .  A
C835        C844   1.404       .  A
C840        C841   1.396       .  A
C840        F845   1.358       .  S
C841        C842   1.402       .  A
C841        H846   1.084       .  S
C842        C843   1.403       .  A
C843        C844   1.394       .  A
C843        F847   1.358       .  S
C844        H848   1.083       .  S
C849        C850   1.399       .  A
C849        C854   1.395       .  A
C849        H859   1.084       .  S
C850        C855   1.471       .  S
C850        C851   1.404       .  A
C851        C852   1.401       .  A
C851        F856   1.357       .  S
C852        C853   1.406       .  A
C852        H857   1.083       .  S
C853        C854   1.410       .  A
C854        F858   1.358       .  S
C855        C860   1.401       .  A
C855        C864   1.400       .  A
C860        C861   1.398       .  A
C860        F865   1.357       .  S
C861        C862   1.408       .  A
C861        H866   1.083       .  S
C862        C863   1.412       .  A
C863        C864   1.398       .  A
C863        F867   1.357       .  S
C864        H868   1.084       .  S
C869        C870   1.405       .  A
C869        C874   1.397       .  A
C869        H879   1.083       .  S
C870        C875   1.480       .  S
C870        C871   1.404       .  A
C871        C872   1.396       .  A
C871        F876   1.357       .  S
C872        C873   1.407       .  A
C872        H877   1.083       .  S
C873        C874   1.408       .  A
C874        F878   1.358       .  S
C875        C880   1.408       .  A
C875        C884   1.405       .  A
C880        C881   1.396       .  A
C880        F885   1.358       .  S
C881        C882   1.400       .  A
C881        H886   1.084       .  S
C882        C883   1.403       .  A
C883        C884   1.397       .  A
C883        F887   1.358       .  S
C884        H888   1.083       .  S
C889        C890   1.404       .  A
C889        C894   1.402       .  A
C889        H899   1.083       .  S
C890        C895   1.479       .  S
C890        C891   1.406       .  A
C891        C892   1.393       .  A
C891        F896   1.358       .  S
C892        C893   1.404       .  A
C892        H897   1.083       .  S
C893        C894   1.408       .  A
C894        F898   1.357       .  S
C895        C900   1.403       .  A
C895        C904   1.405       .  A
C900        C901   1.394       .  A
C900        F905   1.358       .  S
C901        C902   1.406       .  A
C901        H906   1.083       .  S
C902        C903   1.408       .  A
C903        C904   1.400       .  A
C903        F907   1.357       .  S
C904        H908   1.083       .  S
C909        C910   1.396       .  A
C909        C914   1.393       .  A
C909        H919   1.083       .  S
C910        C915   1.461       .  S
C910        C911   1.402       .  A
C911        C912   1.394       .  A
C911        F916   1.358       .  S
C912        C913   1.404       .  A
C912        H917   1.083       .  S
C913        C914   1.413       .  A
C914        F918   1.358       .  S
C915        C920   1.399       .  A
C915        C924   1.399       .  A
C920        C921   1.390       .  A
C920        F925   1.358       .  S
C921        C922   1.406       .  A
C921        H926   1.082       .  S
C922        C923   1.411       .  A
C923        C924   1.398       .  A
C923        F927   1.357       .  S
C924        H928   1.082       .  S
C929        C930   1.400       .  A
C929        C934   1.392       .  A
C929        H939   1.084       .  S
C930        C935   1.474       .  S
C930        C931   1.405       .  A
C931        C932   1.398       .  A
C931        F936   1.358       .  S
C932        C933   1.407       .  A
C932        H937   1.083       .  S
C933        C934   1.410       .  A
C934        F938   1.357       .  S
C935        C940   1.406       .  A
C935        C944   1.402       .  A
C940        C941   1.394       .  A
C940        F945   1.358       .  S
C941        C942   1.402       .  A
C941        H946   1.083       .  S
C942        C943   1.408       .  A
C943        C944   1.396       .  A
C943        F947   1.358       .  S
C944        H948   1.083       .  S
C949        C950   1.405       .  A
C949        C954   1.400       .  A
C949        H959   1.083       .  S
C950        C955   1.476   1_565  S
C950        C951   1.402       .  A
C951        C952   1.392       .  A
C951        F956   1.358       .  S
C952        C953   1.408       .  A
C952        H957   1.083       .  S
C953        C954   1.408       .  A
C954        F958   1.357       .  S
C955        C960   1.404       .  A
C955        C964   1.401       .  A
C960        C961   1.398       .  A
C960        F965   1.357       .  S
C961        C962   1.406       .  A
C961        H966   1.083       .  S
C962        C963   1.412       .  A
C963        C964   1.394       .  A
C963        F967   1.358       .  S
C964        H968   1.083   1_545  S
C969        C970   1.403       .  A
C969        C974   1.400       .  A
C969        H979   1.083       .  S
C970        C975   1.476       .  S
C970        C971   1.404       .  A
C971        C972   1.393       .  A
C971        F976   1.358       .  S
C972        C973   1.405       .  A
C972        H977   1.083       .  S
C973        C974   1.407       .  A
C974        F978   1.357       .  S
C975        C980   1.402       .  A
C975        C984   1.404       .  A
C980        C981   1.395       .  A
C980        F985   1.357       .  S
C981        C982   1.407   1_455  A
C981        H986   1.083   1_455  S
C982        C983   1.409   1_655  A
C983        C984   1.399       .  A
C983        F987   1.357       .  S
C984        H988   1.084       .  S
C989        C990   1.404       .  A
C989        C994   1.398       .  A
C989        H999   1.083       .  S
C990        C995   1.478       .  S
C990        C991   1.404       .  A
C991        C992   1.397       .  A
C991        F996   1.358       .  S
C992        C993   1.407       .  A
C992        H997   1.082       .  S
C993        C994   1.408       .  A
C994        F998   1.357       .  S
C995       C1000   1.403       .  A
C995       C1004   1.404       .  A
C1000      C1001   1.395       .  A
C1000      F1005   1.358       .  S
C1001      C1002   1.407       .  A
C1001      H1006   1.082       .  S
C1002      C1003   1.410       .  A
C1003      C1004   1.400       .  A
C1003      F1007   1.357       .  S
C1004      H1008   1.082       .  S
C1009      C1010   1.402       .  A
C1009      C1014   1.396       .  A
C1009      H1019   1.083       .  S
C1010      C1015   1.469       .  S
C1010      C1011   1.402       .  A
C1011      C1012   1.391       .  A
C1011      F1016   1.358       .  S
C1012      C1013   1.403       .  A
C1012      H1017   1.083       .  S
C1013      C1014   1.407       .  A
C1014      F1018   1.358       .  S
C1015      C1020   1.400       .  A
C1015      C1024   1.403       .  A
C1020      C1021   1.394       .  A
C1020      F1025   1.358       .  S
C1021      C1022   1.410       .  A
C1021      H1026   1.083       .  S
C1022      C1023   1.406       .  A
C1023      C1024   1.394       .  A
C1023      F1027   1.357       .  S
C1024      H1028   1.084       .  S
C1029      C1030   1.403       .  A
C1029      C1034   1.399       .  A
C1029      H1039   1.083       .  S
C1030      C1035   1.481       .  S
C1030      C1031   1.405       .  A
C1031      C1032   1.400       .  A
C1031      F1036   1.358       .  S
C1032      C1033   1.407       .  A
C1032      H1037   1.083       .  S
C1033      C1034   1.408       .  A
C1034      F1038   1.357       .  S
C1035      C1040   1.406       .  A
C1035      C1044   1.402       .  A
C1040      C1041   1.400       .  A
C1040      F1045   1.357       .  S
C1041      C1042   1.406       .  A
C1041      H1046   1.083       .  S
C1042      C1043   1.410       .  A
C1043      C1044   1.398       .  A
C1043      F1047   1.358       .  S
C1044      H1048   1.083       .  S
C1049      C1050   1.403       .  A
C1049      C1054   1.394       .  A
C1049      H1059   1.084       .  S
C1050      C1055   1.481       .  S
C1050      C1051   1.407       .  A
C1051      C1052   1.402       .  A
C1051      F1056   1.357       .  S
C1052      C1053   1.406       .  A
C1052      H1057   1.083       .  S
C1053      C1054   1.407       .  A
C1054      F1058   1.358       .  S
C1055      C1060   1.407       .  A
C1055      C1064   1.402       .  A
C1060      C1061   1.398   1_655  A
C1060      F1065   1.357       .  S
C1061      C1062   1.405       .  A
C1061      H1066   1.083       .  S
C1062      C1063   1.411       .  A
C1063      C1064   1.397   1_455  A
C1063      F1067   1.358       .  S
C1064      H1068   1.083       .  S
C1069      C1070   1.402       .  A
C1069      C1074   1.395       .  A
C1069      H1079   1.083       .  S
C1070      C1075   1.472       .  S
C1070      C1071   1.404       .  A
C1071      C1072   1.395       .  A
C1071      F1076   1.358       .  S
C1072      C1073   1.405       .  A
C1072      H1077   1.083       .  S
C1073      C1074   1.407       .  A
C1074      F1078   1.357       .  S
C1075      C1080   1.404       .  A
C1075      C1084   1.399       .  A
C1080      C1081   1.395       .  A
C1080      F1085   1.358       .  S
C1081      C1082   1.405       .  A
C1081      H1086   1.082       .  S
C1082      C1083   1.413       .  A
C1083      C1084   1.395       .  A
C1083      F1087   1.357       .  S
C1084      H1088   1.083       .  S
C1089      C1090   1.407       .  A
C1089      C1094   1.403       .  A
C1089      H1099   1.083       .  S
C1090      C1095   1.491       .  S
C1090      C1091   1.407   1_556  A
C1091      C1092   1.398       .  A
C1091      F1096   1.358       .  S
C1092      C1093   1.407       .  A
C1092      H1097   1.083       .  S
C1093      C1094   1.411   1_554  A
C1094      F1098   1.357       .  S
C1095      C1100   1.408       .  A
C1095      C1104   1.407       .  A
C1100      C1101   1.400       .  A
C1100      F1105   1.357       .  S
C1101      C1102   1.406       .  A
C1101      H1106   1.083       .  S
C1102      C1103   1.407       .  A
C1103      C1104   1.400       .  A
C1103      F1107   1.357       .  S
C1104      H1108   1.083       .  S
C1109      C1110   1.401       .  A
C1109      C1114   1.395   1_565  A
C1109      H1119   1.084       .  S
C1110      C1115   1.478       .  S
C1110      C1111   1.404   1_565  A
C1111      C1112   1.400       .  A
C1111      F1116   1.357       .  S
C1112      C1113   1.408       .  A
C1112      H1117   1.083       .  S
C1113      C1114   1.411       .  A
C1114      F1118   1.357       .  S
C1115      C1120   1.405       .  A
C1115      C1124   1.403       .  A
C1120      C1121   1.400       .  A
C1120      F1125   1.357       .  S
C1121      C1122   1.407       .  A
C1121      H1126   1.083       .  S
C1122      C1123   1.407       .  A
C1123      C1124   1.396       .  A
C1123      F1127   1.357       .  S
C1124      H1128   1.084       .  S
C1129      C1130   1.407       .  A
C1129      C1134   1.403       .  A
C1129      H1139   1.083       .  S
C1130      C1135   1.487       .  S
C1130      C1131   1.406       .  A
C1131      C1132   1.394       .  A
C1131      F1136   1.358       .  S
C1132      C1133   1.405       .  A
C1132      H1137   1.084       .  S
C1133      C1134   1.408       .  A
C1134      F1138   1.357       .  S
C1135      C1140   1.405       .  A
C1135      C1144   1.408       .  A
C1140      C1141   1.400       .  A
C1140      F1145   1.357       .  S
C1141      C1142   1.409       .  A
C1141      H1146   1.083       .  S
C1142      C1143   1.405       .  A
C1143      C1144   1.397       .  A
C1143      F1147   1.357       .  S
C1144      H1148   1.083       .  S
C1149      C1150   1.407       .  A
C1149      C1154   1.399       .  A
C1149      H1159   1.083       .  S
C1150      C1155   1.497       .  S
C1150      C1151   1.412       .  A
C1151      C1152   1.405       .  A
C1151      F1156   1.357       .  S
C1152      C1153   1.405       .  A
C1152      H1157   1.083       .  S
C1153      C1154   1.406       .  A
C1154      F1158   1.358       .  S
C1155      C1160   1.409       .  A
C1155      C1164   1.408       .  A
C1160      C1161   1.399       .  A
C1160      F1165   1.357       .  S
C1161      C1162   1.407       .  A
C1161      H1166   1.083       .  S
C1162      C1163   1.411       .  A
C1163      C1164   1.405       .  A
C1163      F1167   1.357       .  S
C1164      H1168   1.083       .  S
C1169      C1170   1.400       .  A
C1169      C1174   1.398       .  A
C1169      H1179   1.084       .  S
C1170      C1175   1.471       .  S
C1170      C1171   1.401       .  A
C1171      C1172   1.397       .  A
C1171      F1176   1.357       .  S
C1172      C1173   1.407       .  A
C1172      H1177   1.083       .  S
C1173      C1174   1.412       .  A
C1174      F1178   1.357       .  S
C1175      C1180   1.402       .  A
C1175      C1184   1.399       .  A
C1180      C1181   1.399       .  A
C1180      F1185   1.357       .  S
C1181      C1182   1.408       .  A
C1181      H1186   1.083       .  S
C1182      C1183   1.410       .  A
C1183      C1184   1.396       .  A
C1183      F1187   1.357       .  S
C1184      H1188   1.084       .  S
C1189      C1190   1.401       .  A
C1189      C1194   1.398       .  A
C1189      H1199   1.082       .  S
C1190      C1195   1.481       .  S
C1190      C1191   1.408       .  A
C1191      C1192   1.397       .  A
C1191      F1196   1.358       .  S
C1192      C1193   1.403       .  A
C1192      H1197   1.082       .  S
C1193      C1194   1.413       .  A
C1194      F1198   1.358       .  S
C1195      C1200   1.407       .  A
C1195      C1204   1.403       .  A
C1200      C1201   1.400       .  A
C1200      F1205   1.357       .  S
C1201      C1202   1.406       .  A
C1201      H1206   1.082       .  S
C1202      C1203   1.407       .  A
C1203      C1204   1.395       .  A
C1203      F1207   1.358       .  S
C1204      H1208   1.083       .  S
C1209      C1210   1.401       .  A
C1209      C1214   1.396       .  A
C1209      H1219   1.083       .  S
C1210      C1215   1.475       .  S
C1210      C1211   1.407       .  A
C1211      C1212   1.397       .  A
C1211      F1216   1.358       .  S
C1212      C1213   1.403       .  A
C1212      H1217   1.083       .  S
C1213      C1214   1.409       .  A
C1214      F1218   1.358       .  S
C1215      C1220   1.405       .  A
C1215      C1224   1.403       .  A
C1220      C1221   1.398       .  A
C1220      F1225   1.357       .  S
C1221      C1222   1.404       .  A
C1221      H1226   1.083       .  S
C1222      C1223   1.406       .  A
C1223      C1224   1.395       .  A
C1223      F1227   1.358       .  S
C1224      H1228   1.084       .  S
C1229      C1230   1.405       .  A
C1229      C1234   1.404       .  A
C1229      H1239   1.083   1_556  S
C1230      C1235   1.484       .  S
C1230      C1231   1.404       .  A
C1231      C1232   1.393       .  A
C1231      F1236   1.358       .  S
C1232      C1233   1.407       .  A
C1232      H1237   1.083       .  S
C1233      C1234   1.412       .  A
C1234      F1238   1.357       .  S
C1235      C1240   1.406       .  A
C1235      C1244   1.403   1_556  A
C1240      C1241   1.402   1_556  A
C1240      F1245   1.357       .  S
C1241      C1242   1.408       .  A
C1241      H1246   1.083       .  S
C1242      C1243   1.410       .  A
C1243      C1244   1.396       .  A
C1243      F1247   1.357       .  S
C1244      H1248   1.084       .  S
C1249      C1250   1.399       .  A
C1249      C1254   1.394       .  A
C1249      H1259   1.083       .  S
C1250      C1255   1.468       .  S
C1250      C1251   1.404       .  A
C1251      C1252   1.396       .  A
C1251      F1256   1.358       .  S
C1252      C1253   1.405       .  A
C1252      H1257   1.082       .  S
C1253      C1254   1.411       .  A
C1254      F1258   1.358       .  S
C1255      C1260   1.402       .  A
C1255      C1264   1.400       .  A
C1260      C1261   1.398       .  A
C1260      F1265   1.357       .  S
C1261      C1262   1.407       .  A
C1261      H1266   1.083       .  S
C1262      C1263   1.410       .  A
C1263      C1264   1.391       .  A
C1263      F1267   1.358       .  S
C1264      H1268   1.084       .  S
C1269      C1270   1.406       .  A
C1269      C1274   1.402       .  A
C1269      H1279   1.083       .  S
C1270      C1275   1.487       .  S
C1270      C1271   1.406       .  A
C1271      C1272   1.395       .  A
C1271      F1276   1.358       .  S
C1272      C1273   1.407       .  A
C1272      H1277   1.083       .  S
C1273      C1274   1.410       .  A
C1274      F1278   1.357       .  S
C1275      C1280   1.409       .  A
C1275      C1284   1.405       .  A
C1280      C1281   1.402       .  A
C1280      F1285   1.357       .  S
C1281      C1282   1.405       .  A
C1281      H1286   1.083       .  S
C1282      C1283   1.406       .  A
C1283      C1284   1.395       .  A
C1283      F1287   1.358       .  S
C1284      H1288   1.083       .  S
C1289      C1290   1.405       .  A
C1289      C1294   1.405       .  A
C1289      H1299   1.083       .  S
C1290      C1295   1.479       .  S
C1290      C1291   1.402   1_556  A
C1291      C1292   1.397       .  A
C1291      F1296   1.357       .  S
C1292      C1293   1.406       .  A
C1292      H1297   1.083       .  S
C1293      C1294   1.408   1_554  A
C1294      F1298   1.357       .  S
C1295      C1300   1.403       .  A
C1295      C1304   1.402       .  A
C1300      C1301   1.400       .  A
C1300      F1305   1.357       .  S
C1301      C1302   1.408       .  A
C1301      H1306   1.082       .  S
C1302      C1303   1.412       .  A
C1303      C1304   1.401       .  A
C1303      F1307   1.357       .  S
C1304      H1308   1.083       .  S
C1309      C1310   1.404       .  A
C1309      C1314   1.396       .  A
C1309      H1319   1.082       .  S
C1310      C1315   1.483       .  S
C1310      C1311   1.407       .  A
C1311      C1312   1.398       .  A
C1311      F1316   1.358   1_565  S
C1312      C1313   1.406       .  A
C1312      H1317   1.082       .  S
C1313      C1314   1.409       .  A
C1314      F1318   1.357       .  S
C1315      C1320   1.409       .  A
C1315      C1324   1.404   1_565  A
C1320      C1321   1.398   1_566  A
C1320      F1325   1.357       .  S
C1321      C1322   1.403       .  A
C1321      H1326   1.083   1_545  S
C1322      C1323   1.407       .  A
C1323      C1324   1.396   1_554  A
C1323      F1327   1.358       .  S
C1324      H1328   1.082       .  S
C1329      C1330   1.402       .  A
C1329      C1334   1.397       .  A
C1329      H1339   1.083       .  S
C1330      C1335   1.478       .  S
C1330      C1331   1.404       .  A
C1331      C1332   1.399       .  A
C1331      F1336   1.357       .  S
C1332      C1333   1.408       .  A
C1332      H1337   1.083       .  S
C1333      C1334   1.411       .  A
C1334      F1338   1.357       .  S
C1335      C1340   1.403       .  A
C1335      C1344   1.404       .  A
C1340      C1341   1.395       .  A
C1340      F1345   1.358       .  S
C1341      C1342   1.406       .  A
C1341      H1346   1.083   1_565  S
C1342      C1343   1.410       .  A
C1343      C1344   1.402       .  A
C1343      F1347   1.357       .  S
C1344      H1348   1.083       .  S
C1349      C1350   1.405       .  A
C1349      C1354   1.401       .  A
C1349      H1359   1.083       .  S
C1350      C1355   1.476       .  S
C1350      C1351   1.404       .  A
C1351      C1352   1.390       .  A
C1351      F1356   1.358       .  S
C1352      C1353   1.404       .  A
C1352      H1357   1.083       .  S
C1353      C1354   1.409       .  A
C1354      F1358   1.357       .  S
C1355      C1360   1.404       .  A
C1355      C1364   1.402       .  A
C1360      C1361   1.396       .  A
C1360      F1365   1.358       .  S
C1361      C1362   1.407       .  A
C1361      H1366   1.083       .  S
C1362      C1363   1.410       .  A
C1363      C1364   1.397       .  A
C1363      F1367   1.357       .  S
C1364      H1368   1.083       .  S
C1369      C1370   1.403   1_556  A
C1369      C1374   1.402   1_556  A
C1369      H1379   1.083       .  S
C1370      C1375   1.481   1_554  S
C1370      C1371   1.404       .  A
C1371      C1372   1.399       .  A
C1371      F1376   1.357       .  S
C1372      C1373   1.407       .  A
C1372      H1377   1.083       .  S
C1373      C1374   1.411       .  A
C1374      F1378   1.357   1_554  S
C1375      C1380   1.405       .  A
C1375      C1384   1.404       .  A
C1380      C1381   1.397       .  A
C1380      F1385   1.357       .  S
C1381      C1382   1.404       .  A
C1381      H1386   1.083       .  S
C1382      C1383   1.409       .  A
C1383      C1384   1.404       .  A
C1383      F1387   1.358       .  S
C1384      H1388   1.083       .  S
C1389      C1390   1.405       .  A
C1389      C1394   1.398       .  A
C1389      H1399   1.082   1_556  S
C1390      C1395   1.484       .  S
C1390      C1391   1.407       .  A
C1391      C1392   1.396       .  A
C1391      F1396   1.358       .  S
C1392      C1393   1.406       .  A
C1392      H1397   1.083       .  S
C1393      C1394   1.408       .  A
C1394      F1398   1.357       .  S
C1395      C1400   1.410       .  A
C1395      C1404   1.403       .  A
C1400      C1401   1.400   1_556  A
C1400      F1405   1.357       .  S
C1401      C1402   1.403       .  A
C1401      H1406   1.083       .  S
C1402      C1403   1.408       .  A
C1403      C1404   1.393   1_554  A
C1403      F1407   1.358       .  S
C1404      H1408   1.083       .  S
C1409      C1410   1.402       .  A
C1409      C1414   1.397       .  A
C1409      H1419   1.083       .  S
C1410      C1415   1.476       .  S
C1410      C1411   1.404       .  A
C1411      C1412   1.398       .  A
C1411      F1416   1.358       .  S
C1412      C1413   1.406       .  A
C1412      H1417   1.083       .  S
C1413      C1414   1.408       .  A
C1414      F1418   1.357       .  S
C1415      C1420   1.404       .  A
C1415      C1424   1.401       .  A
C1420      C1421   1.396       .  A
C1420      F1425   1.358       .  S
C1421      C1422   1.406       .  A
C1421      H1426   1.083       .  S
C1422      C1423   1.412       .  A
C1423      C1424   1.399       .  A
C1423      F1427   1.357       .  S
C1424      H1428   1.083       .  S
C1429      C1430   1.402       .  A
C1429      C1434   1.392       .  A
C1429      H1439   1.083       .  S
C1430      C1435   1.481       .  S
C1430      C1431   1.407       .  A
C1431      C1432   1.400       .  A
C1431      F1436   1.357       .  S
C1432      C1433   1.406       .  A
C1432      H1437   1.083       .  S
C1433      C1434   1.411       .  A
C1434      F1438   1.358       .  S
C1435      C1440   1.405       .  A
C1435      C1444   1.405       .  A
C1440      C1441   1.392       .  A
C1440      F1445   1.358       .  S
C1441      C1442   1.406       .  A
C1441      H1446   1.083       .  S
C1442      C1443   1.409       .  A
C1443      C1444   1.400       .  A
C1443      F1447   1.357       .  S
C1444      H1448   1.083       .  S
C1449      C1450   1.405       .  A
C1449      C1454   1.403       .  A
C1449      H1459   1.083       .  S
C1450      C1455   1.475       .  S
C1450      C1451   1.402       .  A
C1451      C1452   1.389       .  A
C1451      F1456   1.358       .  S
C1452      C1453   1.406       .  A
C1452      H1457   1.083       .  S
C1453      C1454   1.409       .  A
C1454      F1458   1.357       .  S
C1455      C1460   1.403       .  A
C1455      C1464   1.402       .  A
C1460      C1461   1.396       .  A
C1460      F1465   1.358       .  S
C1461      C1462   1.408       .  A
C1461      H1466   1.082       .  S
C1462      C1463   1.410       .  A
C1463      C1464   1.397       .  A
C1463      F1467   1.357       .  S
C1464      H1468   1.083       .  S
C1469      C1470   1.400       .  A
C1469      C1474   1.393       .  A
C1469      H1479   1.084       .  S
C1470      C1475   1.473       .  S
C1470      C1471   1.403       .  A
C1471      C1472   1.401       .  A
C1471      F1476   1.357       .  S
C1472      C1473   1.408       .  A
C1472      H1477   1.083       .  S
C1473      C1474   1.409       .  A
C1474      F1478   1.357       .  S
C1475      C1480   1.400       .  A
C1475      C1484   1.403       .  A
C1480      C1481   1.394       .  A
C1480      F1485   1.358       .  S
C1481      C1482   1.409       .  A
C1481      H1486   1.083       .  S
C1482      C1483   1.410       .  A
C1483      C1484   1.401       .  A
C1483      F1487   1.357       .  S
C1484      H1488   1.083       .  S
C1489      C1490   1.403       .  A
C1489      C1494   1.396       .  A
C1489      H1499   1.083       .  S
C1490      C1495   1.476       .  S
C1490      C1491   1.405       .  A
C1491      C1492   1.392       .  A
C1491      F1496   1.358       .  S
C1492      C1493   1.405       .  A
C1492      H1497   1.083       .  S
C1493      C1494   1.409       .  A
C1494      F1498   1.357       .  S
C1495      C1500   1.405       .  A
C1495      C1504   1.406       .  A
C1500      C1501   1.391       .  A
C1500      F1505   1.357       .  S
C1501      C1502   1.403       .  A
C1501      H1506   1.083       .  S
C1502      C1503   1.405       .  A
C1503      C1504   1.396       .  A
C1503      F1507   1.358       .  S
C1504      H1508   1.083       .  S
C1509      C1510   1.402       .  A
C1509      C1514   1.396       .  A
C1509      H1519   1.083       .  S
C1510      C1515   1.473   1_655  S
C1510      C1511   1.403       .  A
C1511      C1512   1.392       .  A
C1511      F1516   1.358   1_655  S
C1512      C1513   1.406       .  A
C1512      H1517   1.083       .  S
C1513      C1514   1.409       .  A
C1514      F1518   1.357       .  S
C1515      C1520   1.407       .  A
C1515      C1524   1.401       .  A
C1520      C1521   1.396       .  A
C1520      F1525   1.357       .  S
C1521      C1522   1.401       .  A
C1521      H1526   1.083       .  S
C1522      C1523   1.406       .  A
C1523      C1524   1.392       .  A
C1523      F1527   1.358       .  S
C1524      H1528   1.084   1_455  S
C1529      C1530   1.401       .  A
C1529      C1534   1.391       .  A
C1529      H1539   1.084       .  S
C1530      C1535   1.467       .  S
C1530      C1531   1.403       .  A
C1531      C1532   1.392       .  A
C1531      F1536   1.358       .  S
C1532      C1533   1.406       .  A
C1532      H1537   1.083       .  S
C1533      C1534   1.408       .  A
C1534      F1538   1.357       .  S
C1535      C1540   1.406       .  A
C1535      C1544   1.399       .  A
C1540      C1541   1.397       .  A
C1540      F1545   1.357       .  S
C1541      C1542   1.402       .  A
C1541      H1546   1.083       .  S
C1542      C1543   1.408       .  A
C1543      C1544   1.387       .  A
C1543      F1547   1.358       .  S
C1544      H1548   1.084       .  S
C1549      C1550   1.406       .  A
C1549      C1554   1.397       .  A
C1549      H1559   1.082       .  S
C1550      C1555   1.472       .  S
C1550      C1551   1.404       .  A
C1551      C1552   1.387       .  A
C1551      F1556   1.358       .  S
C1552      C1553   1.403       .  A
C1552      H1557   1.083       .  S
C1553      C1554   1.403       .  A
C1554      F1558   1.357       .  S
C1555      C1560   1.405       .  A
C1555      C1564   1.401       .  A
C1560      C1561   1.395       .  A
C1560      F1565   1.358       .  S
C1561      C1562   1.405       .  A
C1561      H1566   1.082       .  S
C1562      C1563   1.411       .  A
C1563      C1564   1.391       .  A
C1563      F1567   1.358       .  S
C1564      H1568   1.083       .  S
C1569      C1570   1.398   1_655  A
C1569      C1574   1.391       .  A
C1569      H1579   1.083       .  S
C1570      C1575   1.466       .  S
C1570      C1571   1.404   1_455  A
C1571      C1572   1.396       .  A
C1571      F1576   1.358   1_655  S
C1572      C1573   1.404       .  A
C1572      H1577   1.083       .  S
C1573      C1574   1.410       .  A
C1574      F1578   1.358       .  S
C1575      C1580   1.404       .  A
C1575      C1584   1.399       .  A
C1580      C1581   1.393       .  A
C1580      F1585   1.358   1_455  S
C1581      C1582   1.402       .  A
C1581      H1586   1.083       .  S
C1582      C1583   1.409       .  A
C1583      C1584   1.394       .  A
C1583      F1587   1.358       .  S
C1584      H1588   1.083       .  S
C1589      C1590   1.404       .  A
C1589      C1594   1.399       .  A
C1589      H1599   1.083       .  S
C1590      C1595   1.478       .  S
C1590      C1591   1.403       .  A
C1591      C1592   1.393       .  A
C1591      F1596   1.358       .  S
C1592      C1593   1.407       .  A
C1592      H1597   1.083       .  S
C1593      C1594   1.409       .  A
C1594      F1598   1.357       .  S
C1595      C1600   1.405   1_565  A
C1595      C1604   1.404       .  A
C1600      C1601   1.397       .  A
C1600      F1605   1.357       .  S
C1601      C1602   1.405       .  A
C1601      H1606   1.083       .  S
C1602      C1603   1.407   1_545  A
C1603      C1604   1.396       .  A
C1603      F1607   1.358       .  S
C1604      H1608   1.083       .  S
C1609      C1610   1.401       .  A
C1609      C1614   1.391       .  A
C1609      H1619   1.083       .  S
C1610      C1615   1.469       .  S
C1610      C1611   1.403       .  A
C1611      C1612   1.400       .  A
C1611      F1616   1.358       .  S
C1612      C1613   1.406       .  A
C1612      H1617   1.083       .  S
C1613      C1614   1.404       .  A
C1614      F1618   1.357       .  S
C1615      C1620   1.404       .  A
C1615      C1624   1.398       .  A
C1620      C1621   1.394       .  A
C1620      F1625   1.358       .  S
C1621      C1622   1.402       .  A
C1621      H1626   1.083       .  S
C1622      C1623   1.412       .  A
C1623      C1624   1.396       .  A
C1623      F1627   1.358       .  S
C1624      H1628   1.083       .  S
C1629      C1630   1.402       .  A
C1629      C1634   1.397       .  A
C1629      H1639   1.083       .  S
C1630      C1635   1.472       .  S
C1630      C1631   1.405       .  A
C1631      C1632   1.393       .  A
C1631      F1636   1.358       .  S
C1632      C1633   1.404       .  A
C1632      H1637   1.083       .  S
C1633      C1634   1.408       .  A
C1634      F1638   1.358       .  S
C1635      C1640   1.405       .  A
C1635      C1644   1.401       .  A
C1640      C1641   1.398       .  A
C1640      F1645   1.358       .  S
C1641      C1642   1.404       .  A
C1641      H1646   1.083       .  S
C1642      C1643   1.406       .  A
C1643      C1644   1.393       .  A
C1643      F1647   1.358       .  S
C1644      H1648   1.084       .  S
C1649      C1650   1.405       .  A
C1649      C1654   1.399       .  A
C1649      H1659   1.083       .  S
C1650      C1655   1.489       .  S
C1650      C1651   1.407       .  A
C1651      C1652   1.402       .  A
C1651      F1656   1.357       .  S
C1652      C1653   1.408       .  A
C1652      H1657   1.083       .  S
C1653      C1654   1.410       .  A
C1654      F1658   1.357       .  S
C1655      C1660   1.406       .  A
C1655      C1664   1.405       .  A
C1660      C1661   1.399       .  A
C1660      F1665   1.358       .  S
C1661      C1662   1.408       .  A
C1661      H1666   1.083       .  S
C1662      C1663   1.411       .  A
C1663      C1664   1.403       .  A
C1663      F1667   1.357       .  S
C1664      H1668   1.083       .  S
C1669      C1670   1.404   1_655  A
C1669      C1674   1.394   1_565  A
C1669      H1679   1.083   1_655  S
C1670      C1675   1.478       .  S
C1670      C1671   1.407   1_455  A
C1671      C1672   1.396       .  A
C1671      F1676   1.358   1_655  S
C1672      C1673   1.404       .  A
C1672      H1677   1.083       .  S
C1673      C1674   1.405   1_565  A
C1674      F1678   1.358       .  S
C1675      C1680   1.407       .  A
C1675      C1684   1.402       .  A
C1680      C1681   1.395       .  A
C1680      F1685   1.358       .  S
C1681      C1682   1.403       .  A
C1681      H1686   1.083       .  S
C1682      C1683   1.410       .  A
C1683      C1684   1.394       .  A
C1683      F1687   1.358       .  S
C1684      H1688   1.083       .  S
C1689      C1690   1.402       .  A
C1689      C1694   1.392       .  A
C1689      H1699   1.084       .  S
C1690      C1695   1.467       .  S
C1690      C1691   1.403       .  A
C1691      C1692   1.398       .  A
C1691      F1696   1.357       .  S
C1692      C1693   1.405       .  A
C1692      H1697   1.083       .  S
C1693      C1694   1.403       .  A
C1694      F1698   1.358       .  S
C1695      C1700   1.406       .  A
C1695      C1704   1.400       .  A
C1700      C1701   1.397       .  A
C1700      F1705   1.358       .  S
C1701      C1702   1.403       .  A
C1701      H1706   1.083       .  S
C1702      C1703   1.404       .  A
C1703      C1704   1.392       .  A
C1703      F1707   1.358       .  S
C1704      H1708   1.083       .  S
C1709      C1710   1.400       .  A
C1709      C1714   1.397   1_655  A
C1709      H1719   1.083       .  S
C1710      C1715   1.478       .  S
C1710      C1711   1.405       .  A
C1711      C1712   1.401   1_655  A
C1711      F1716   1.358       .  S
C1712      C1713   1.408       .  A
C1712      H1717   1.083       .  S
C1713      C1714   1.413       .  A
C1714      F1718   1.357       .  S
C1715      C1720   1.403       .  A
C1715      C1724   1.403       .  A
C1720      C1721   1.397       .  A
C1720      F1725   1.358       .  S
C1721      C1722   1.406       .  A
C1721      H1726   1.082       .  S
C1722      C1723   1.410       .  A
C1723      C1724   1.401       .  A
C1723      F1727   1.357       .  S
C1724      H1728   1.082       .  S
