geometry optimzed in LAMMPS
_audit_creation_date              2020-12-01 
_audit_creation_method            'lammps2cif' 
_symmetry_space_group_name_H-M    'P1' 
_symmetry_Int_Tables_number       1 
_symmetry_cell_setting            triclinic 
loop_ 
_symmetry_equiv_pos_as_xyz 
  x,y,z 
_cell_length_a                    29.80600287 
_cell_length_b                    29.723830657604864 
_cell_length_c                    30.176324637416993 
_cell_angle_alpha                 89.93103043182774 
_cell_angle_beta                  89.48650806796742 
_cell_angle_gamma                 90.62613846389387 
loop_ 
_atom_site_label 
_atom_site_type_symbol 
_atom_site_fract_x 
_atom_site_fract_y 
_atom_site_fract_z 
_atom_site_charge 
C1          C  0.73290061  0.32657218  0.26896807     0.80300
N2          N  0.69548648  0.30868486  0.25015086    -0.78000
C3          C  0.67531887  0.27088000  0.26656188     0.82800
N4          N  0.69355401  0.25034112  0.30277580    -0.77900
C5          C  0.73111149  0.26778521  0.32258956     0.82900
N6          N  0.75030469  0.30591966  0.30520632    -0.79600
C7          C  0.73706890  0.79153336  0.26801010     0.80300
N8          N  0.70087226  0.81209499  0.24987937    -0.78000
C9          C  0.68233370  0.84926745  0.26887479     0.82800
N10         N  0.70070528  0.86582875  0.30686844    -0.77900
C11         C  0.73691950  0.84599393  0.32586897     0.82900
N12         N  0.75470549  0.80882966  0.30607682    -0.79600
C13         C  0.22536745  0.84002975  0.28194040     0.80300
N14         N  0.20563517  0.80310881  0.26324149    -0.78000
C15         C  0.16831137  0.78332478  0.28143689     0.82800
N16         N  0.15062987  0.80132022  0.31926422    -0.77900
C17         C  0.16970667  0.83817112  0.33892883     0.82900
N18         N  0.20704581  0.85728091  0.31984980    -0.79600
C19         C  0.22113271  0.82934783  0.84217673     0.80300
N20         N  0.20190368  0.79112898  0.85872715    -0.78000
C21         C  0.16441468  0.77282093  0.84037749     0.82800
N22         N  0.14587524  0.79340138  0.80451019    -0.77900
C23         C  0.16450245  0.83179272  0.78698771     0.82900
N24         N  0.20203480  0.84954874  0.80634248    -0.79600
C25         C  0.72700338  0.27048472  0.77878642     0.80300
N26         N  0.74543614  0.30752034  0.79872079    -0.78000
C27         C  0.72670927  0.32533520  0.83626945     0.82800
N28         N  0.68899483  0.30548031  0.85357917    -0.77900
C29         C  0.67014460  0.26846060  0.83437604     0.85600
N30         N  0.68955914  0.25120671  0.79721117    -0.79600
C31         C  0.72440707  0.82930430  0.78124312     0.80300
N32         N  0.68732582  0.84742001  0.80095596    -0.78000
C33         C  0.66756942  0.82762333  0.83719811     0.82800
N34         N  0.68547432  0.78901494  0.85345965    -0.77900
C35         C  0.72233634  0.77007047  0.83439806     0.82900
N36         N  0.74155016  0.79068431  0.79842264    -0.79600
C37         C  0.21287072  0.26416785  0.83822435     0.80300
N38         N  0.19282714  0.24718669  0.80120599    -0.78000
C39         C  0.15588167  0.26697649  0.78332053     0.82800
N40         N  0.13900124  0.30457299  0.80328088    -0.77900
C41         C  0.15814433  0.32207661  0.84064858     0.82900
N42         N  0.19495878  0.30147711  0.85754013    -0.79600
C43         C  0.22118552  0.27358565  0.27317485     0.80300
N44         N  0.20181027  0.31117868  0.25633328    -0.78000
C45         C  0.16449317  0.32948108  0.27507497     0.82800
N46         N  0.14613587  0.30916915  0.31167258    -0.77900
C47         C  0.16445439  0.27139832  0.32972907     0.82900
N48         N  0.20215460  0.25386583  0.31008837    -0.79600
O49         O  0.00629438  0.11646527  0.55529956    -0.55300
O50         O  0.84276200  0.20354504  0.49854627    -0.63200
C51         C  0.80798463  0.18465793  0.48224509     0.97600
O52         O  0.15319605  0.01992762  0.56686906    -0.68400
O53         O  0.06681258  0.05434955  0.60842141    -0.66300
C54         C  0.71916136  0.04629543  0.55420608     0.89700
O55         O  0.90575180  0.26122513  0.54836715    -0.68500
C56         C  0.80556310  0.18945258  0.61881327     0.97200
C57         C  0.94523193  0.27806173  0.54756460     0.90200
Ti58       Ti  0.88903697  0.19085801  0.55137965     1.51200
Ti59       Ti  0.99968597  0.91496798  0.56271075     1.51300
O60         O  0.93957290  0.17968201  0.60071706    -0.62400
O61         O  0.82039067  0.05052403  0.50807558    -0.66400
C62         C  0.08102838  0.91835272  0.63255915     0.97600
O63         O  0.88129233  0.98731035  0.55960125    -0.55400
C64         C  0.81490493  0.91701283  0.49054259     0.97400
Ti65       Ti  0.80562513  0.10419578  0.55369583     1.51000
Ti66       Ti  0.99328367  0.18754090  0.55324859     1.53000
Ti67       Ti  0.07721084  0.10485057  0.55785461     1.49300
O68         O  0.79423962  0.95398812  0.61162446    -0.62100
O69         O  0.74154735  0.01056907  0.55609823    -0.68400
O70         O  0.98035647  0.25505222  0.55055121    -0.68500
O71         O  0.87537069  0.12029962  0.55392864    -0.55300
O72         O  0.07169304  0.04967553  0.51228308    -0.66300
O73         O  0.04793009  0.90013781  0.51152538    -0.63200
O74         O  0.94204709  0.17629900  0.50442529    -0.62400
O75         O  0.84612279  0.90090395  0.61165950    -0.63700
O76         O  0.98335705  0.84576681  0.56297551    -0.68500
O77         O  0.84094668  0.20746883  0.60225322    -0.63200
O78         O  0.01383457  0.98508587  0.56184248    -0.55300
C79         C  0.94511397  0.82645067  0.56355013     0.90200
O80         O  0.81804837  0.05436668  0.60426525    -0.66300
O81         O  0.03795218  0.20600643  0.60639899    -0.63800
O82         O  0.04649099  0.89997653  0.61512047    -0.63200
C83         C  0.07251551  0.18905396  0.62385278     0.97500
C84         C  0.81065922  0.91823766  0.62764747     0.97500
C85         C  0.16872837  0.06002411  0.56660722     0.89500
O86         O  0.09754846  0.95544284  0.61807546    -0.62500
O87         O  0.79060920  0.14903189  0.49918170    -0.62500
C88         C  0.08497942  0.91667123  0.49726520     0.97200
Ti89       Ti  0.08382957  0.00060243  0.56369933     1.51000
O90         O  0.85015409  0.90006189  0.50685648    -0.63800
O91         O  0.78869917  0.15306884  0.60357853    -0.62500
O92         O  0.09449690  0.15000515  0.50383668    -0.62100
O93         O  0.90828201  0.84720297  0.56264452    -0.68700
O94         O  0.04180925  0.20200848  0.50137459    -0.63700
O95         O  0.14491774  0.09430760  0.56123690    -0.68200
O96         O  0.79677770  0.95149122  0.50735366    -0.62000
Ti97       Ti  0.89487818  0.91615953  0.56066895     1.53200
O98         O  0.08978628  0.15339219  0.60867637    -0.62100
O99         O  0.94886511  0.92640537  0.51369338    -0.62400
O100        O  0.10297991  0.95155772  0.51454219    -0.62500
C101        C  0.07794669  0.18505844  0.48640611     0.97500
O102        O  0.73666453  0.08554376  0.55378445    -0.68500
Ti103      Ti  0.81024910  0.99957820  0.55815779     1.49500
O104        O  0.94608249  0.92716704  0.60989037    -0.62500
O105        O  0.44877817  0.99104586  0.12290549    -0.55300
O106        O  0.49989755  0.16082923  0.19419813    -0.63200
C107        C  0.51700808  0.19599967  0.17718550     0.97600
O108        O  0.44803684  0.84536160  0.02805028    -0.68400
O109        O  0.39905884  0.92707767  0.06178099    -0.66300
C110        C  0.44657285  0.28016593  0.03857724     0.89700
O111        O  0.45052124  0.10371722  0.25023730    -0.68500
C112        C  0.37897220  0.19547437  0.18248328     0.97200
C113        C  0.45370994  0.06973930  0.27484219     0.90200
Ti114      Ti  0.44779728  0.11320209  0.18300139     1.51200
Ti115      Ti  0.44531565  0.99481694  0.92273879     1.51300
O116        O  0.40009491  0.05864311  0.17825509    -0.62400
O117        O  0.49298028  0.18079772  0.04588036    -0.66400
C118        C  0.37733099  0.91146095  0.92874924     0.97600
O119        O  0.44280825  0.11564460  0.98557453    -0.55400
C120        C  0.51105589  0.18215103  0.91307587     0.97400
Ti121      Ti  0.44601174  0.19609908  0.09835185     1.51000
Ti122      Ti  0.45075756  0.00905847  0.19194030     1.53000
Ti123      Ti  0.44896270  0.91991567  0.11260443     1.49300
O124        O  0.38904013  0.19795300  0.94975804    -0.62100
O125        O  0.44300534  0.25522738  0.00494316    -0.68400
O126        O  0.45335567  0.02952459  0.26023017    -0.68500
O127        O  0.44546016  0.12512753  0.11371831    -0.55300
O128        O  0.49649372  0.92862454  0.05879921    -0.66300
O129        O  0.49809720  0.94876347  0.90880440    -0.63200
O130        O  0.49750359  0.06185523  0.17384466    -0.62400
O131        O  0.38992932  0.14406918  0.89856847    -0.63700
O132        O  0.44448828  0.00482290  0.85423783    -0.68500
O133        O  0.39509944  0.15935891  0.19794891    -0.63200
O134        O  0.44593776  0.98404843  0.99272957    -0.55300
C135        C  0.44459611  0.04063974  0.83167642     0.90200
O136        O  0.39546568  0.18025355  0.04959384    -0.66300
O137        O  0.39985685  0.96125796  0.21241585    -0.63800
O138        O  0.39397378  0.94645741  0.91079503    -0.63200
C139        C  0.38291059  0.92512237  0.19685216     0.97500
C140        C  0.37302863  0.17964981  0.91509024     0.97500
C141        C  0.44791764  0.82762755  0.06639827     0.89500
O142        O  0.39308862  0.89501139  0.96442555    -0.62500
O143        O  0.50078846  0.21404382  0.14248443    -0.62500
C144        C  0.51417365  0.91339884  0.92574848     0.97200
Ti145      Ti  0.44678404  0.91370398  0.00924765     1.51000
O146        O  0.49575699  0.14535355  0.89780390    -0.63800
O147        O  0.39474664  0.21372283  0.14709940    -0.62500
O148        O  0.50275656  0.90846764  0.15799671    -0.62100
O149        O  0.44453056  0.07969276  0.84873944    -0.68700
O150        O  0.50513715  0.96435373  0.20719093    -0.63700
O151        O  0.44834229  0.84997444  0.10214770    -0.68200
O152        O  0.49411718  0.20065664  0.94713028    -0.62000
Ti153      Ti  0.44345671  0.09869237  0.91622566     1.53200
O154        O  0.39777981  0.90700684  0.16151848    -0.62100
O155        O  0.49318566  0.04874487  0.93015147    -0.62400
O156        O  0.49850819  0.89661711  0.96166658    -0.62500
C157        C  0.52068963  0.92798679  0.19105247     0.97500
O158        O  0.44700214  0.26547531  0.07831525    -0.68500
Ti159      Ti  0.44268519  0.18673697  0.99546462     1.49500
O160        O  0.39550908  0.04611622  0.93114380    -0.62500
O161        O  0.87808450  0.55162292  0.99049064    -0.55300
O162        O  0.79601191  0.50569471  0.15601823    -0.63200
C163        C  0.81362237  0.48891260  0.19030483     0.97600
O164        O  0.98565399  0.54907071  0.86033004    -0.68400
O165        O  0.94524415  0.59875775  0.93536308    -0.66300
C166        C  0.94593923  0.55748679  0.28081087     0.89700
O167        O  0.74159190  0.55507074  0.09585232    -0.68500
C168        C  0.81402962  0.62814827  0.18865652     0.97200
C169        C  0.72038883  0.55270130  0.05968242     0.90200
Ti170      Ti  0.81091365  0.55715090  0.10838810     1.51200
Ti171      Ti  0.08113734  0.54991959  0.00916841     1.51300
O172        O  0.82046887  0.60352967  0.05391866    -0.62400
O173        O  0.94770095  0.50973672  0.18166076    -0.66400
C174        C  0.07948868  0.61716685  0.92648822     0.97600
O175        O  0.01618454  0.55719819  0.12536455    -0.55400
C176        C  0.08289909  0.48964007  0.19497983     0.97400
Ti177      Ti  0.89573774  0.55853318  0.19187066     1.51000
Ti178      Ti  0.80818877  0.55181642  0.00474341     1.53000
Ti179      Ti  0.89321920  0.55038088  0.92138637     1.49300
O180        O  0.04911878  0.61009274  0.20967291    -0.62100
O181        O  0.98390709  0.55860547  0.26159203    -0.68400
O182        O  0.73933414  0.55188558  0.02175073    -0.68500
O183        O  0.88206657  0.55869655  0.12157167    -0.55300
O184        O  0.94356102  0.50082174  0.93608869    -0.66300
O185        O  0.09503448  0.49440910  0.96506470    -0.63200
O186        O  0.82082729  0.50601256  0.05855646    -0.62400
O187        O  0.10186323  0.61194420  0.15664200    -0.63700
O188        O  0.14892782  0.55030200  0.02073917    -0.68500
O189        O  0.79678407  0.61189522  0.15346381    -0.63200
O190        O  0.00980731  0.54966080  0.99744873    -0.55300
C191        C  0.17259625  0.55649874  0.05467192     0.90200
O192        O  0.94921490  0.60735353  0.18160654    -0.66300
O193        O  0.79219358  0.60132709  0.95521175    -0.63800
O194        O  0.09794173  0.60009930  0.96019903    -0.63200
C195        C  0.80997330  0.61711956  0.91977418     0.97500
C196        C  0.08480932  0.62709559  0.19259628     0.97500
C197        C  0.95115661  0.55077994  0.83663000     0.89500
O198        O  0.04268962  0.60222734  0.91184584    -0.62500
O199        O  0.84904468  0.50533020  0.20715360    -0.62500
C200        C  0.07828327  0.47948663  0.92921067     0.97200
Ti201      Ti  0.99679133  0.54931278  0.92743670     1.51000
O202        O  0.10241149  0.50699216  0.16112554    -0.63800
O203        O  0.84870407  0.61118792  0.20626524    -0.62500
O204        O  0.84547468  0.49863469  0.90615013    -0.62100
O205        O  0.15667351  0.55848629  0.09399571    -0.68700
O206        O  0.79324115  0.49677264  0.95974769    -0.63700
O207        O  0.91139681  0.55010770  0.85237082    -0.68200
O208        O  0.04588457  0.50460822  0.20999803    -0.62000
Ti209      Ti  0.08667683  0.55697774  0.11192381     1.53200
O210        O  0.84702217  0.60257985  0.90439426    -0.62100
O211        O  0.07266516  0.50463861  0.06405134    -0.62400
O212        O  0.04356763  0.49688110  0.91245098    -0.62500
C213        C  0.81028751  0.48149800  0.92376563     0.97500
O214        O  0.90892809  0.55766252  0.26041474    -0.68500
Ti215      Ti  0.00058451  0.55810066  0.19401838     1.49500
O216        O  0.07322358  0.60231704  0.05807945    -0.62500
N217        N  0.99819055  0.49118964  0.52203728    -0.36500
N218        N  0.95134196  0.57133468  0.53389912    -0.57100
N219        N  0.99113245  0.58124676  0.61787746    -0.36500
N220        N  0.05100548  0.50062924  0.60632989    -0.57100
C221        C  0.99325876  0.50557951  0.48017213     0.27100
C222        C  0.03541377  0.46632486  0.52274216     0.27100
C223        C  0.98426718  0.62389427  0.60492647     0.27100
C224        C  0.02731152  0.58213584  0.64403955     0.27100
C225        C  0.93358923  0.55913827  0.49513345     0.35700
C226        C  0.92952400  0.60800134  0.54728216     0.35700
C227        C  0.05484219  0.45631630  0.59881221     0.35700
C228        C  0.05141374  0.50569567  0.65051812     0.35700
C229        C  0.02765323  0.48904509  0.45364403    -0.21800
C230        C  0.05453885  0.46394585  0.48094204    -0.21800
C231        C  0.01638651  0.65224941  0.62345130    -0.21800
C232        C  0.04384099  0.62548982  0.64834160    -0.21800
C233        C  0.89872997  0.58745211  0.48406730    -0.22800
C234        C  0.89612516  0.61876746  0.51750279    -0.22800
C235        C  0.06106275  0.43319626  0.63816486    -0.22800
C236        C  0.05891366  0.46493910  0.67138654    -0.22800
C237        C  0.95691556  0.53127501  0.46597269    -0.18200
C238        C  0.04388575  0.43746097  0.55780518    -0.18200
C239        C  0.03841361  0.54588371  0.67068550    -0.18200
C240        C  0.94873942  0.63730457  0.57790846    -0.18200
H241        H  0.03220020  0.49352507  0.41828698     0.14700
H242        H  0.08316765  0.44420631  0.47089010     0.14700
H243        H  0.01941365  0.68839367  0.61988758     0.14700
H244        H  0.07174723  0.63672153  0.66832497     0.14700
H245        H  0.88024874  0.58806296  0.45336223     0.13000
H246        H  0.87536126  0.64842067  0.51766498     0.13000
H247        H  0.06326458  0.39713668  0.64252867     0.13000
H248        H  0.05950619  0.45846510  0.70668107     0.13000
H249        H  0.97578346  0.49491328  0.54850162     0.26300
H250        H  0.97077587  0.55313740  0.61179199     0.26300
N251        N  0.47892042  0.08610978  0.49695445    -0.36500
N252        N  0.46610626  0.03784925  0.57673636    -0.57100
N253        N  0.39020853  0.09013275  0.59400082    -0.36500
N254        N  0.40236599  0.14900990  0.51412210    -0.57100
C255        C  0.52095363  0.07421124  0.50733671     0.27100
C256        C  0.48254950  0.12377169  0.47246132     0.27100
C257        C  0.40307838  0.07937099  0.63522475     0.27100
C258        C  0.36597893  0.12777466  0.59736342     0.27100
C259        C  0.50136130  0.01524755  0.56115726     0.35700
C260        C  0.45349846  0.01799232  0.61467242     0.35700
C261        C  0.40708677  0.15150947  0.46989940     0.35700
C262        C  0.35827423  0.15332007  0.52221058     0.35700
C263        C  0.55153475  0.10457457  0.48856170    -0.21800
C264        C  0.52696998  0.13585160  0.46608511    -0.21800
C265        C  0.38594379  0.11041790  0.66525040    -0.21800
C266        C  0.36203988  0.14100092  0.64103221    -0.21800
C267        C  0.51055167  0.97906204  0.58857600    -0.22800
C268        C  0.47993314  0.98086548  0.62290023    -0.22800
C269        C  0.36650072  0.16025889  0.44980436    -0.22800
C270        C  0.33512299  0.16142459  0.48341823    -0.22800
C271        C  0.53212900  0.03618632  0.53262207    -0.18200
C272        C  0.44697438  0.14030008  0.44836322    -0.18200
C273        C  0.33899460  0.14216473  0.56313585    -0.18200
C274        C  0.42808456  0.04107673  0.64610026    -0.18200
H275        H  0.58778325  0.10380454  0.49005375     0.14700
H276        H  0.54020617  0.16343218  0.44635140     0.14700
H277        H  0.38895401  0.11026714  0.70095808     0.14700
H278        H  0.34243206  0.16846753  0.65409245     0.14700
H279        H  0.53918977  0.95703923  0.58664432     0.13000
H280        H  0.48008535  0.96030194  0.65252414     0.13000
H281        H  0.35993639  0.16268973  0.41466722     0.13000
H282        H  0.29921567  0.16461868  0.47962990     0.13000
H283        H  0.44918854  0.06836590  0.50356894     0.26300
H284        H  0.39448062  0.07146183  0.56504543     0.26300
N285        N  0.47672650  0.49366132  0.00227633    -0.36500
N286        N  0.39614100  0.51108611  0.94300285    -0.57100
N287        N  0.38627442  0.58805821  0.00737741    -0.36500
N288        N  0.46553509  0.57088121  0.05384445    -0.57100
C289        C  0.47779362  0.47223022  0.96314891     0.27100
C290        C  0.51928449  0.50521681  0.01191452     0.27100
C291        C  0.36103373  0.59233743  0.97104799     0.27100
C292        C  0.39972958  0.62968918  0.01890515     0.27100
C293        C  0.40173048  0.46660832  0.93796046     0.35700
C294        C  0.35166083  0.51784295  0.94199663     0.35700
C295        C  0.50218147  0.55533612  0.07372242     0.35700
C296        C  0.45284023  0.60749073  0.07614351     0.35700
C297        C  0.52138916  0.46899199  0.94766405    -0.21800
C298        C  0.54793580  0.48999384  0.97868531    -0.21800
C299        C  0.35736765  0.63704342  0.95925960    -0.21800
C300        C  0.38229109  0.66096036  0.98956728    -0.21800
C301        C  0.36097182  0.44519718  0.93027312    -0.22800
C302        C  0.32880836  0.47806050  0.93309260    -0.22800
C303        C  0.51232898  0.58143060  0.11046216    -0.22800
C304        C  0.48074546  0.61482701  0.11198650    -0.22800
C305        C  0.44192280  0.44573935  0.94928212    -0.18200
C306        C  0.53219665  0.52796571  0.05072981    -0.18200
C307        C  0.42555703  0.63958302  0.05648486    -0.18200
C308        C  0.33272159  0.55784748  0.95735668    -0.18200
H309        H  0.53290635  0.45124946  0.91848521     0.14700
H310        H  0.58415841  0.49266338  0.97740197     0.14700
H311        H  0.33707812  0.65093375  0.93313198     0.14700
H312        H  0.38592155  0.69720855  0.99069950     0.14700
H313        H  0.35485853  0.40938659  0.92707143     0.13000
H314        H  0.29282415  0.47283871  0.93236840     0.13000
H315        H  0.54184105  0.57944815  0.13098095     0.13000
H316        H  0.48102074  0.64359573  0.13394624     0.13000
H317        H  0.44833750  0.49710485  0.02247668     0.26300
H318        H  0.39080772  0.55818932  0.02493622     0.26300
C319        C  0.24972682  0.52935305  0.04913325    -0.21200
C320        C  0.21939110  0.56433823  0.04399295    -0.09200
C321        C  0.22736777  0.59749271  0.01153872     0.29600
C322        C  0.26160163  0.59232507  0.98072080    -0.21200
C323        C  0.29111475  0.55628002  0.98412669    -0.09300
C324        C  0.28634572  0.52606641  0.02022357     0.29600
F325        F  0.31712721  0.49377562  0.02787387    -0.19800
H326        H  0.24357279  0.50323201  0.07358086     0.18000
H327        H  0.26546686  0.61693943  0.95445186     0.18000
F328        F  0.19818163  0.63184132  0.00631756    -0.19800
C329        C  0.60421339  0.51277478  0.08817938    -0.21200
C330        C  0.57984765  0.53703375  0.05708969    -0.09200
C331        C  0.60094267  0.56970864  0.03033509     0.29600
C332        C  0.64702267  0.57544637  0.03205899    -0.21200
C333        C  0.67191000  0.54987552  0.06170200    -0.09300
C334        C  0.65035871  0.51963451  0.09099182     0.29600
F335        F  0.67418499  0.49506050  0.12033039    -0.19800
H336        H  0.58767928  0.48807264  0.10930089     0.18000
H337        H  0.66340251  0.59932407  0.00989808     0.18000
F338        F  0.57695453  0.59448308  0.00125708    -0.19800
C339        C  0.97829223  0.57274464  0.39870551    -0.21200
C340        C  0.95177582  0.53925113  0.41881416    -0.09200
C341        C  0.92120857  0.51381124  0.39422322     0.29600
C342        C  0.91756566  0.52165582  0.34901355    -0.21200
C343        C  0.94527119  0.55410474  0.32854820    -0.09300
C344        C  0.97553616  0.57982805  0.35347366     0.29600
F345        F  0.00261161  0.61126377  0.33394696    -0.19800
H346        H  0.00179087  0.59250329  0.41803355     0.18000
H347        H  0.89471767  0.50115772  0.32967243     0.18000
F348        F  0.89595167  0.48099307  0.41380795    -0.19800
C349        C  0.02130006  0.58203490  0.74216824    -0.21200
C350        C  0.01439656  0.54562070  0.71365007    -0.09200
C351        C  0.97822691  0.51547181  0.72223015     0.29600
C352        C  0.95269208  0.51961771  0.76103557    -0.21200
C353        C  0.96112725  0.55540269  0.78980894    -0.09300
C354        C  0.99373098  0.58800458  0.77868412     0.29600
F355        F  0.00187738  0.62336167  0.80600367    -0.19800
H356        H  0.04797220  0.60625975  0.73607834     0.18000
H357        H  0.92810961  0.49387516  0.76965340     0.18000
F358        F  0.96723690  0.48242154  0.69319952    -0.19800
C359        C  0.47690666  0.37310507  0.96591873    -0.21200
C360        C  0.44077789  0.40206858  0.97254845    -0.09200
C361        C  0.41146433  0.39452369  0.00909826     0.29600
C362        C  0.41612718  0.35637804  0.03551062    -0.21200
C363        C  0.45164029  0.32726888  0.02760465    -0.09300
C364        C  0.48353484  0.33743988  0.99451219     0.29600
F365        F  0.51905068  0.31006850  0.98755095    -0.19800
H366        H  0.50086019  0.37889818  0.93929674     0.18000
H367        H  0.39097790  0.34847103  0.06055500     0.18000
F368        F  0.37899583  0.42422710  0.01997747    -0.19800
C369        C  0.40548098  0.71184923  0.09125987    -0.21200
C370        C  0.43528969  0.68669062  0.06567838    -0.09200
C371        C  0.47167947  0.70740101  0.04368276     0.29600
C372        C  0.47658051  0.75376627  0.04511916    -0.21200
C373        C  0.44589103  0.77920681  0.06942196    -0.09300
C374        C  0.41108326  0.75824887  0.09363005     0.29600
F375        F  0.38083451  0.78293756  0.11675960    -0.19800
H376        H  0.37712381  0.69575791  0.10774317     0.18000
H377        H  0.50350712  0.76994682  0.02647524     0.18000
F378        F  0.50058217  0.68288316  0.01869140    -0.19800
C379        C  0.47728312  0.14010545  0.37261145    -0.21200
C380        C  0.44602110  0.12310744  0.40302065    -0.09200
C381        C  0.42154761  0.08344733  0.39322356     0.29600
C382        C  0.42695057  0.06257900  0.35219808    -0.21200
C383        C  0.45756158  0.08053150  0.32150739    -0.09300
C384        C  0.48381123  0.11849836  0.33260406     0.29600
F385        F  0.51419334  0.13614893  0.30346788    -0.19800
H386        H  0.49722980  0.16972063  0.38022812     0.18000
H387        H  0.40596065  0.03394178  0.34368004     0.18000
F388        F  0.39300446  0.06471988  0.42351292    -0.19800
C389        C  0.41302544  0.00374885  0.71775662    -0.21200
C390        C  0.43844608  0.03422089  0.69259489    -0.09200
C391        C  0.46937587  0.06346451  0.71273888     0.29600
C392        C  0.47171700  0.06508355  0.75850345    -0.21200
C393        C  0.44445672  0.03637952  0.78398343    -0.09300
C394        C  0.41643009  0.00433434  0.76360515     0.29600
F395        F  0.39020650  0.97590237  0.78805686    -0.19800
H396        H  0.38918552  0.98125331  0.70202940     0.18000
H397        H  0.49404332  0.08922579  0.77408104     0.18000
F398        F  0.49446637  0.09278047  0.68810944    -0.19800
C399        C  0.59697023  0.05956066  0.57595322    -0.21200
C400        C  0.57930505  0.03128719  0.54310433    -0.09200
C401        C  0.60737435  0.00571392  0.51610263     0.29600
C402        C  0.65349270  0.01009936  0.52073356    -0.21200
C403        C  0.67117222  0.04090137  0.55140791    -0.09300
C404        C  0.64295230  0.06494229  0.57970332     0.29600
F405        F  0.65983744  0.09365174  0.61045019    -0.19800
H406        H  0.57494964  0.07956082  0.59662221     0.18000
H407        H  0.67545513  0.99096211  0.49922230     0.18000
F408        F  0.59021621  0.97856051  0.48418212    -0.19800
C409        C  0.26415977  0.13156221  0.59652157    -0.21200
C410        C  0.29507839  0.11962125  0.56381335    -0.09200
C411        C  0.28745147  0.08071297  0.53785642     0.29600
C412        C  0.24727418  0.05675452  0.54213845    -0.21200
C413        C  0.21555078  0.07050759  0.57332847    -0.09300
C414        C  0.22512776  0.10660456  0.60198146     0.29600
F415        F  0.19453208  0.12018800  0.63260394    -0.19800
H416        H  0.27023354  0.16029239  0.61775438     0.18000
H417        H  0.23983328  0.02949869  0.51945884     0.18000
F418        F  0.31868024  0.06604653  0.50836427    -0.19800
C419        C  0.91563679  0.70967207  0.59972477    -0.21200
C420        C  0.94293199  0.68522358  0.57094036    -0.09200
C421        C  0.96924971  0.70692217  0.53843684     0.29600
C422        C  0.96975130  0.75340342  0.53610838    -0.21200
C423        C  0.94317224  0.77804950  0.56541758    -0.09300
C424        C  0.91529044  0.75627020  0.59667644     0.29600
F425        F  0.88973354  0.78013272  0.62555260    -0.19800
H426        H  0.89581902  0.69273976  0.62511618     0.18000
H427        H  0.99097346  0.77020874  0.51172524     0.18000
F428        F  0.99599608  0.68307680  0.51061537    -0.19800
C429        C  0.94900662  0.35349081  0.57897901    -0.21200
C430        C  0.95441490  0.32555299  0.54225046    -0.09200
C431        C  0.98716087  0.33606083  0.51007805     0.29600
C432        C  0.01875893  0.36939523  0.51813046    -0.21200
C433        C  0.01541580  0.39641532  0.55597809    -0.09300
C434        C  0.97844011  0.38969786  0.58524419     0.29600
F435        F  0.97038291  0.41783388  0.61967980    -0.19800
H436        H  0.92422075  0.34538843  0.60432331     0.18000
H437        H  0.04574636  0.37436886  0.49435338     0.18000
F438        F  0.99262264  0.30928181  0.47405155    -0.19800
C439        C  0.16249239  0.21219064  0.39144833    -0.21200
C440        C  0.14289820  0.24952878  0.37038276    -0.09200
C441        C  0.10214870  0.26546736  0.38871780     0.29600
C442        C  0.08194862  0.24457058  0.42592763    -0.21200
C443        C  0.10122380  0.20711437  0.44683378    -0.09300
C444        C  0.14222418  0.19135015  0.42893719     0.29600
F445        F  0.16297809  0.15563807  0.44747480    -0.19800
H446        H  0.19376776  0.19885391  0.37887159     0.18000
H447        H  0.05058262  0.25779985  0.43821181     0.18000
F448        F  0.08105464  0.30121304  0.37063630    -0.19800
C449        C  0.10246403  0.38749740  0.27108592    -0.21200
C450        C  0.14395096  0.37119856  0.25541170    -0.09200
C451        C  0.16529498  0.39530287  0.22055621     0.29600
C452        C  0.14556932  0.43356454  0.20192175    -0.21200
C453        C  0.10395723  0.44962241  0.21715423    -0.09300
C454        C  0.08269466  0.42597719  0.25241176     0.29600
F455        F  0.04244883  0.43949058  0.26871359    -0.19800
H456        H  0.08487019  0.37019966  0.29775024     0.18000
H457        H  0.16316168  0.45061165  0.17509201     0.18000
F458        F  0.20561261  0.38234759  0.20418271    -0.19800
C459        C  0.28288358  0.21515852  0.26681180    -0.21200
C460        C  0.26253063  0.25438832  0.25068844    -0.09200
C461        C  0.28222796  0.27476733  0.21254496     0.29600
C462        C  0.31981887  0.25592294  0.19113329    -0.21200
C463        C  0.33967621  0.21632940  0.20681664    -0.09300
C464        C  0.32076387  0.19651670  0.24559560     0.29600
F465        F  0.33859552  0.15878419  0.26329657    -0.19800
H466        H  0.26938430  0.19853170  0.29604256     0.18000
H467        H  0.33327631  0.27248347  0.16183999     0.18000
F468        F  0.26535401  0.31310333  0.19533977    -0.19800
C469        C  0.10369499  0.27260390  0.71691724    -0.21200
C470        C  0.13414555  0.24745226  0.74238588    -0.09200
C471        C  0.14348163  0.20326798  0.72814260     0.29600
C472        C  0.12337435  0.18527261  0.69004897    -0.21200
C473        C  0.09342299  0.21034764  0.66424056    -0.09300
C474        C  0.08370565  0.25452545  0.67838571     0.29600
F475        F  0.05538865  0.28059676  0.65480349    -0.19800
H476        H  0.09560383  0.30666854  0.72654621     0.18000
H477        H  0.13087987  0.15090133  0.68117072     0.18000
F478        F  0.17141496  0.17659818  0.75147274    -0.19800
C479        C  0.10488184  0.38817344  0.84263357    -0.21200
C480        C  0.13882032  0.36314492  0.86312566    -0.09200
C481        C  0.15351842  0.37789657  0.90525250     0.29600
C482        C  0.13423503  0.41557988  0.92608041    -0.21200
C483        C  0.09970377  0.44004388  0.90590396    -0.09300
C484        C  0.08576564  0.42595542  0.86335912     0.29600
F485        F  0.05370903  0.44878759  0.84127410    -0.19800
H486        H  0.09293883  0.37858063  0.81016816     0.18000
H487        H  0.14617038  0.42528783  0.95852260     0.18000
F488        F  0.18609981  0.35563236  0.92708222    -0.19800
C489        C  0.27216271  0.20277478  0.83891986    -0.21200
C490        C  0.25415285  0.24241175  0.85740713    -0.09200
C491        C  0.27644491  0.26104991  0.89436136     0.29600
C492        C  0.31467183  0.24068549  0.91208475    -0.21200
C493        C  0.33258114  0.20098114  0.89395872    -0.09300
C494        C  0.31070042  0.18237000  0.85671382     0.29600
F495        F  0.32624441  0.14431487  0.83740021    -0.19800
H496        H  0.25635741  0.18729292  0.81050574     0.18000
H497        H  0.33028021  0.25635571  0.94051461     0.18000
F498        F  0.26166529  0.29930689  0.91378306    -0.19800
C499        C  0.72628100  0.88905273  0.72104103    -0.21200
C500        C  0.74649006  0.85197467  0.74181246    -0.09200
C501        C  0.78802125  0.83727186  0.72445129     0.29600
C502        C  0.80818288  0.85882694  0.68773406    -0.21200
C503        C  0.78796260  0.89575837  0.66683086    -0.09300
C504        C  0.74648825  0.91062437  0.68421245     0.29600
F505        F  0.72503532  0.94588816  0.66561090    -0.19800
H506        H  0.69444564  0.90146855  0.73318159     0.18000
H507        H  0.84011246  0.84648027  0.67577475     0.18000
F508        F  0.80980164  0.80222203  0.74303375    -0.19800
C509        C  0.78472253  0.71311235  0.83857482    -0.21200
C510        C  0.74291762  0.72861484  0.85409367    -0.09200
C511        C  0.72212247  0.70474617  0.88936785     0.29600
C512        C  0.74383366  0.66866668  0.90997641    -0.21200
C513        C  0.78649515  0.65438236  0.89569829    -0.09300
C514        C  0.80608454  0.67646832  0.85867273     0.29600
F515        F  0.84628042  0.66327763  0.84200128    -0.19800
H516        H  0.80152001  0.72982319  0.81107406     0.18000
H517        H  0.72702279  0.65192829  0.93746969     0.18000
F518        F  0.68063775  0.71595717  0.90420970    -0.19800
C519        C  0.60788150  0.88741365  0.84155402    -0.21200
C520        C  0.62762915  0.84875278  0.85962900    -0.09200
C521        C  0.60916600  0.83146907  0.89961004     0.29600
C522        C  0.57247597  0.85230443  0.92045923    -0.21200
C523        C  0.55295147  0.89111380  0.90253697    -0.09300
C524        C  0.57134933  0.90838841  0.86251206     0.29600
F525        F  0.55443801  0.94587201  0.84342496    -0.19800
H526        H  0.62088716  0.90186611  0.81102338     0.18000
H527        H  0.55954417  0.83801818  0.95110042     0.18000
F528        F  0.62673689  0.79469734  0.91931524    -0.19800
C529        C  0.73064732  0.20937617  0.72083672    -0.21200
C530        C  0.74701474  0.25076492  0.73723299    -0.09200
C531        C  0.78192815  0.27242959  0.71321201     0.29600
C532        C  0.80001365  0.25282561  0.67463132    -0.21200
C533        C  0.78392335  0.21118548  0.65854143    -0.09300
C534        C  0.74860569  0.18984780  0.68229377     0.29600
F535        F  0.73168866  0.14953822  0.66898411    -0.19800
H536        H  0.70389160  0.19152625  0.73813359     0.18000
H537        H  0.82702501  0.27037580  0.65742142     0.18000
F538        F  0.79867194  0.31274739  0.72663228    -0.19800
C539        C  0.78924593  0.38300956  0.84393008    -0.21200
C540        C  0.74747870  0.36579321  0.85852595    -0.09200
C541        C  0.72638443  0.38757671  0.89470195     0.29600
C542        C  0.74681570  0.42473749  0.91558422    -0.21200
C543        C  0.78866417  0.44179316  0.90107962    -0.09300
C544        C  0.80954097  0.42029040  0.86460947     0.29600
F545        F  0.84998161  0.43481118  0.84885257    -0.19800
H546        H  0.80665321  0.36742413  0.81639713     0.18000
H547        H  0.72952344  0.44036735  0.94316908     0.18000
F548        F  0.68566961  0.37346299  0.90999338    -0.19800
C549        C  0.56040447  0.25006495  0.89879874    -0.21200
C550        C  0.55083501  0.20429503  0.89105448    -0.09200
C551        C  0.58065631  0.18006975  0.86371241     0.29600
C552        C  0.61888776  0.20119397  0.84519833    -0.21200
C553        C  0.62884342  0.24678677  0.85376173    -0.09300
C554        C  0.59883542  0.27105142  0.88077129     0.29600
F555        F  0.60595840  0.31538368  0.88918471    -0.19800
H556        H  0.53780489  0.26989169  0.91875088     0.18000
H557        H  0.64129164  0.18144164  0.82476016     0.18000
F558        F  0.57378790  0.13558563  0.85585433    -0.19800
C559        C  0.11376101  0.83005682  0.71987227    -0.21200
C560        C  0.14381054  0.85406891  0.74713769    -0.09200
C561        C  0.15350131  0.89928212  0.73566048     0.29600
C562        C  0.13332410  0.91958647  0.69866351    -0.21200
C563        C  0.10290275  0.89571701  0.67164665    -0.09300
C564        C  0.09384519  0.85025164  0.68269199     0.29600
F565        F  0.06633589  0.82473873  0.65711988    -0.19800
H566        H  0.10586753  0.79513481  0.72703377     0.18000
H567        H  0.14127989  0.95448508  0.69146048     0.18000
F568        F  0.18181290  0.92449157  0.76066000    -0.19800
C569        C  0.09715666  0.72281517  0.85558453    -0.21200
C570        C  0.14324461  0.73169804  0.86070020    -0.09200
C571        C  0.16830802  0.70181191  0.88692746     0.29600
C572        C  0.14755732  0.66472435  0.90778632    -0.21200
C573        C  0.10135239  0.65629483  0.90332692    -0.09300
C574        C  0.07634468  0.68590682  0.87675894     0.29600
F575        F  0.03135313  0.68031339  0.87245493    -0.19800
H576        H  0.07678923  0.74524246  0.83609879     0.18000
H577        H  0.16789033  0.64224830  0.92718159     0.18000
F578        F  0.21315971  0.70780892  0.89196868    -0.19800
C579        C  0.27556912  0.89363612  0.85384816    -0.21200
C580        C  0.26184522  0.84942008  0.86399441    -0.09200
C581        C  0.28699171  0.82542994  0.89568804     0.29600
C582        C  0.32407921  0.84557809  0.91674675    -0.21200
C583        C  0.33758692  0.88990500  0.90663203    -0.09300
C584        C  0.31266154  0.91363748  0.87463242     0.29600
F585        F  0.32336437  0.95679647  0.86378750    -0.19800
H586        H  0.25717043  0.91328596  0.83000328     0.18000
H587        H  0.34256271  0.82617663  0.94073400     0.18000
F588        F  0.27639288  0.78217094  0.90610707    -0.19800
C589        C  0.10539019  0.84478090  0.39356662    -0.21200
C590        C  0.14914555  0.85764867  0.38040320    -0.09200
C591        C  0.17213594  0.88924869  0.40712804     0.29600
C592        C  0.15154948  0.90753234  0.44517979    -0.21200
C593        C  0.10753509  0.89501700  0.45795959    -0.09300
C594        C  0.08480789  0.86307856  0.43146001     0.29600
F595        F  0.04201214  0.85021283  0.44121990    -0.19800
H596        H  0.08643042  0.82086325  0.37397912     0.18000
H597        H  0.17021709  0.93181557  0.46462499     0.18000
F598        F  0.21471788  0.90244925  0.39691284    -0.19800
C599        C  0.08693551  0.68592455  0.25362726    -0.21200
C600        C  0.10701350  0.66649741  0.21575643    -0.09200
C601        C  0.14802589  0.68552207  0.20061539     0.29600
C602        C  0.16747308  0.72288602  0.22214181    -0.21200
C603        C  0.14709576  0.74268589  0.25962350    -0.09300
C604        C  0.10646211  0.72322503  0.27524517     0.29600
F605        F  0.08502886  0.74030055  0.31124582    -0.19800
H606        H  0.05558824  0.67240783  0.26660412     0.18000
H607        H  0.19882385  0.73635560  0.20915082     0.18000
F608        F  0.16973580  0.66811934  0.16494414    -0.19800
C609        C  0.32593643  0.86214755  0.20430300    -0.21200
C610        C  0.34349292  0.90321776  0.22009854    -0.09200
C611        C  0.32190307  0.92314152  0.25692503     0.29600
C612        C  0.28400933  0.90248716  0.27685021    -0.21200
C613        C  0.26631988  0.86147885  0.26078886    -0.09300
C614        C  0.28817378  0.84157304  0.22409903     0.29600
F615        F  0.27337384  0.80196633  0.20700392    -0.19800
H616        H  0.34137232  0.84568367  0.17614003     0.18000
H617        H  0.26826335  0.91901426  0.30480955     0.18000
F618        F  0.33685264  0.96294187  0.27351843    -0.19800
C619        C  0.79387055  0.84336242  0.38782062    -0.21200
C620        C  0.75644550  0.86405020  0.36837518    -0.09200
C621        C  0.73816960  0.90170496  0.39035551     0.29600
C622        C  0.75677399  0.91773440  0.43004825    -0.21200
C623        C  0.79433571  0.89721577  0.44936406    -0.09300
C624        C  0.81260763  0.85956745  0.42751329     0.29600
F625        F  0.84890399  0.83840633  0.44412044    -0.19800
H626        H  0.80903741  0.81443123  0.37218570     0.18000
H627        H  0.74175962  0.94689117  0.44545324     0.18000
F628        F  0.70233417  0.92356920  0.37367639    -0.19800
C629        C  0.78974760  0.72526517  0.26936126    -0.21200
C630        C  0.75645484  0.74974677  0.24725624    -0.09200
C631        C  0.74194517  0.73327961  0.20575073     0.29600
C632        C  0.76009778  0.69373526  0.18750095    -0.21200
C633        C  0.79349701  0.66932657  0.20960909    -0.09300
C634        C  0.80795913  0.68585282  0.25108579     0.29600
F635        F  0.83968890  0.66392714  0.27447241    -0.19800
H636        H  0.80180513  0.73647488  0.30128357     0.18000
H637        H  0.74825428  0.68255133  0.15548745     0.18000
F638        F  0.71057431  0.75553233  0.18217977    -0.19800
C639        C  0.61943682  0.84926961  0.21322457    -0.21200
C640        C  0.64140386  0.87036728  0.24888825    -0.09200
C641        C  0.62320270  0.91096529  0.26506470     0.29600
C642        C  0.58415819  0.92909629  0.24648271    -0.21200
C643        C  0.56196774  0.90768880  0.21111104    -0.09300
C644        C  0.58053477  0.86740048  0.19459789     0.29600
F645        F  0.56127917  0.84512086  0.16030914    -0.19800
H646        H  0.63217897  0.81818100  0.19962848     0.18000
H647        H  0.57140393  0.96028746  0.25985349     0.18000
F648        F  0.64312730  0.93369154  0.29864577    -0.19800
C649        C  0.73444719  0.20435334  0.37938956    -0.21200
C650        C  0.75095687  0.24597286  0.36320031    -0.09200
C651        C  0.78672534  0.26644333  0.38652718     0.29600
C652        C  0.80424346  0.24657062  0.42486545    -0.21200
C653        C  0.78753914  0.20526012  0.44138271    -0.09300
C654        C  0.75256063  0.18406848  0.41754150     0.29600
F655        F  0.73618677  0.14329624  0.43045893    -0.19800
H656        H  0.70755142  0.18707748  0.36226764     0.18000
H657        H  0.83137761  0.26384689  0.44163858     0.18000
F658        F  0.80520748  0.30596197  0.37263423    -0.19800
C659        C  0.74066422  0.38354842  0.20753934    -0.21200
C660        C  0.75419077  0.36818177  0.24947335    -0.09200
C661        C  0.78763421  0.39313925  0.27176432     0.29600
C662        C  0.80639644  0.43229497  0.25265266    -0.21200
C663        C  0.79251240  0.44778599  0.21086497    -0.09300
C664        C  0.75951645  0.42244572  0.18837257     0.29600
F665        F  0.74599799  0.43441930  0.14722049    -0.19800
H666        H  0.71554143  0.36512739  0.18900273     0.18000
H667        H  0.83188149  0.45061966  0.27081313     0.18000
F668        F  0.80202032  0.38028541  0.31231360    -0.19800
C669        C  0.62135021  0.20708512  0.25005381    -0.21200
C670        C  0.63417475  0.25230852  0.24422222    -0.09200
C671        C  0.60798509  0.27906282  0.21563786     0.29600
C672        C  0.57048551  0.26080509  0.19362774    -0.21200
C673        C  0.55774172  0.21553398  0.19948695    -0.09300
C674        C  0.58410564  0.18880856  0.22792239     0.29600
F675        F  0.57484550  0.14434282  0.23351947    -0.19800
H676        H  0.64080017  0.18534483  0.27115837     0.18000
H677        H  0.55102431  0.28238266  0.17237656     0.18000
F678        F  0.61794002  0.32329063  0.20939979    -0.19800
loop_ 
_geom_bond_atom_site_label_1 
_geom_bond_atom_site_label_2 
_geom_bond_distance 
_geom_bond_site_symmetry_2 
_ccdc_geom_bond_type 
C1            N2   1.359       .  A
C1            N6   1.363       .  A
C1          C660   1.501       .  S
N2            C3   1.359       .  A
C3            N4   1.371       .  A
C3          C670   1.505       .  S
N4            C5   1.371       .  A
C5            N6   1.366       .  A
C5          C650   1.514       .  S
C7            N8   1.364       .  A
C7           N12   1.366       .  A
C7          C630   1.510       .  S
N8            C9   1.365       .  A
C9           N10   1.365       .  A
C9          C640   1.508       .  S
N10          C11   1.366       .  A
C11          N12   1.366       .  A
C11         C620   1.510       .  S
C13          N14   1.365       .  A
C13          N18   1.366       .  A
C13         C613   1.507       .  S
N14          C15   1.363       .  A
C15          N16   1.365       .  A
C15         C603   1.512       .  S
N16          C17   1.367       .  A
C17          N18   1.366       .  A
C17         C590   1.508       .  S
C19          N20   1.359       .  A
C19          N24   1.368       .  A
C19         C580   1.504       .  S
N20          C21   1.360       .  A
C21          N22   1.367       .  A
C21         C570   1.498       .  S
N22          C23   1.367       .  A
C23          N24   1.368       .  A
C23         C560   1.512       .  S
C25          N26   1.367       .  A
C25          N30   1.363       .  A
C25         C530   1.506       .  S
N26          C27   1.368       .  A
C27          N28   1.363       .  A
C27         C540   1.508       .  S
N28          C29   1.362       .  A
C29          N30   1.361       .  A
C29         C553   1.497       .  S
C31          N32   1.367       .  A
C31          N36   1.365       .  A
C31         C500   1.509       .  S
N32          C33   1.367       .  A
C33          N34   1.364       .  A
C33         C520   1.508       .  S
N34          C35   1.363       .  A
C35          N36   1.364       .  A
C35         C510   1.506       .  S
C37          N38   1.366       .  A
C37          N42   1.365       .  A
C37         C490   1.515       .  S
N38          C39   1.369       .  A
C39          N40   1.369       .  A
C39         C470   1.513       .  S
N40          C41   1.369       .  A
C41          N42   1.365       .  A
C41         C480   1.514       .  S
C43          N44   1.363       .  A
C43          N48   1.373       .  A
C43         C460   1.519       .  S
N44          C45   1.362       .  A
C45          N46   1.365       .  A
C45         C450   1.512       .  S
N46          C47   1.368       .  A
C47          N48   1.374       .  A
C47         C440   1.522       .  S
O49         Ti67   2.148       .  S
O49         Ti66   2.153   1_455  S
O50          C51   1.276       .  A
O50         Ti58   2.153       .  S
C51         C653   1.512       .  S
C51          O87   1.278       .  A
O52          C85   1.274       .  A
O52         Ti89   2.143       .  S
O53         Ti89   2.154       .  S
O53         Ti67   2.157       .  S
C54         C403   1.441       .  S
C54          O69   1.262       .  A
C54         O102   1.273       .  A
O55          C57   1.274       .  A
O55         Ti58   2.146       .  S
C56         C533   1.506       .  S
C56          O91   1.276       .  A
C56          O77   1.275       .  A
C57         C430   1.443       .  S
C57          O70   1.261       .  A
Ti58         O71   2.133       .  S
Ti58         O74   2.160       .  S
Ti58         O60   2.155       .  S
Ti58         O77   2.152       .  S
Ti59        O104   2.164       .  S
Ti59         O99   2.156       .  S
Ti59         O78   2.122   1_655  S
Ti59         O76   2.109       .  S
Ti59         O73   2.150   1_655  S
Ti59         O82   2.167   1_655  S
O60         Ti66   2.149       .  S
O61        Ti103   2.155   1_545  S
O61         Ti65   2.155       .  S
C62         C563   1.513       .  S
C62          O82   1.278       .  A
C62          O86   1.278       .  A
O63         Ti97   2.158       .  S
O63        Ti103   2.153       .  S
C64         C623   1.508       .  S
C64          O90   1.273       .  A
C64          O96   1.268       .  A
Ti65         O80   2.162       .  S
Ti65         O71   2.128       .  S
Ti65        O102   2.123       .  S
Ti65         O91   2.154       .  S
Ti65         O87   2.169       .  S
Ti66         O74   2.155       .  S
Ti66         O94   2.161   1_655  S
Ti66         O70   2.049       .  S
Ti66         O81   2.161   1_655  S
Ti67         O72   2.147       .  S
Ti67         O98   2.140       .  S
Ti67         O92   2.165       .  S
Ti67         O95   2.049       .  S
O68          C84   1.272       .  A
O68        Ti103   2.153       .  S
O69        Ti103   2.079   1_545  S
O72         Ti89   2.164       .  S
O73          C88   1.275       .  A
O75          C84   1.272       .  A
O75         Ti97   2.151       .  S
O76          C79   1.271       .  A
O78         Ti89   2.133   1_565  S
C79         C423   1.440       .  S
C79          O93   1.266       .  A
O80        Ti103   2.155   1_545  S
O81          C83   1.270       .  A
C83         C473   1.510       .  S
C83          O98   1.268       .  A
C84         C503   1.509       .  S
C85         C413   1.443       .  S
C85          O95   1.259       .  A
O86         Ti89   2.163   1_565  S
C88         C593   1.507       .  S
C88         O100   1.276       .  A
Ti89        O100   2.159   1_545  S
O90         Ti97   2.161       .  S
O92         C101   1.273       .  A
O93         Ti97   2.093       .  S
O94         C101   1.273       .  A
O96        Ti103   2.135       .  S
Ti97        O104   2.162       .  S
Ti97         O99   2.154       .  S
C101        C443   1.520       .  S
O105       Ti123   2.137       .  S
O105       Ti122   2.153   1_565  S
O106        C107   1.264       .  A
O106       Ti114   2.119       .  S
C107        C673   1.505       .  S
C107        O143   1.277       .  A
O108        C141   1.271       .  A
O108       Ti145   2.109       .  S
O109       Ti145   2.161       .  S
O109       Ti123   2.158       .  S
C110        C363   1.444       .  S
C110        O125   1.262       .  A
C110        O158   1.276       .  A
O111        C113   1.258       .  A
O111       Ti114   2.051       .  S
C112        C463   1.516       .  S
C112        O147   1.280       .  A
C112        O133   1.271       .  A
C113        C383   1.450       .  S
C113        O126   1.275       .  A
Ti114       O127   2.122       .  S
Ti114       O130   2.155       .  S
Ti114       O116   2.151       .  S
Ti114       O133   2.142       .  S
Ti115       O160   2.153   1_565  S
Ti115       O155   2.148   1_565  S
Ti115       O134   2.136       .  S
Ti115       O132   2.088   1_565  S
Ti115       O129   2.136       .  S
Ti115       O138   2.122       .  S
O116       Ti122   2.164       .  S
O117       Ti159   2.154   1_554  S
O117       Ti121   2.156       .  S
C118        C583   1.503       .  S
C118        O138   1.267       .  A
C118        O142   1.277       .  A
O119       Ti153   2.153       .  S
O119       Ti159   2.135       .  S
C120        C550   1.499       .  S
C120        O146   1.269       .  A
C120        O152   1.270       .  A
Ti121       O136   2.164       .  S
Ti121       O127   2.159       .  S
Ti121       O158   2.148       .  S
Ti121       O147   2.180       .  S
Ti121       O143   2.178       .  S
Ti122       O130   2.154       .  S
Ti122       O150   2.160   1_545  S
Ti122       O126   2.151       .  S
Ti122       O137   2.153   1_545  S
Ti123       O128   2.159       .  S
Ti123       O154   2.144       .  S
Ti123       O148   2.148       .  S
Ti123       O151   2.103       .  S
O124        C140   1.274       .  A
O124       Ti159   2.149       .  S
O125       Ti159   2.056   1_554  S
O128       Ti145   2.157       .  S
O129        C144   1.269       .  A
O131        C140   1.276       .  A
O131       Ti153   2.170       .  S
O132        C135   1.263       .  A
O134       Ti145   2.149   1_556  S
C135        C393   1.445       .  S
C135        O149   1.270       .  A
O136       Ti159   2.154   1_554  S
O137        C139   1.274       .  A
C139        C610   1.505       .  S
C139        O154   1.273       .  A
C140        C493   1.514       .  S
C141        C373   1.443       .  S
C141        O151   1.268       .  A
O142       Ti145   2.173   1_556  S
C144        C523   1.506       .  S
C144        O156   1.275       .  A
Ti145       O156   2.162   1_554  S
O146       Ti153   2.144       .  S
O148        C157   1.273       .  A
O149       Ti153   2.114       .  S
O150        C157   1.276       .  A
O152       Ti159   2.143       .  S
Ti153       O160   2.151       .  S
Ti153       O155   2.153       .  S
C157        C643   1.508       .  S
O161       Ti179   2.130       .  S
O161       Ti178   2.124   1_556  S
O162        C163   1.268       .  A
O162       Ti170   2.138       .  S
C163        C663   1.500       .  S
C163        O199   1.269       .  A
O164        C197   1.259       .  A
O164       Ti201   2.055       .  S
O165       Ti201   2.150       .  S
O165       Ti179   2.148       .  S
C166        C343   1.444       .  S
C166        O181   1.267       .  A
C166        O214   1.268       .  A
O167        C169   1.268       .  A
O167       Ti170   2.104       .  S
C168        C633   1.511       .  S
C168        O203   1.275       .  A
C168        O189   1.277       .  A
C169        C333   1.447       .  S
C169        O182   1.272       .  A
Ti170       O183   2.161       .  S
Ti170       O186   2.160       .  S
Ti170       O172   2.159       .  S
Ti170       O189   2.165       .  S
Ti171       O216   2.160       .  S
Ti171       O211   2.144       .  S
Ti171       O190   2.158   1_554  S
Ti171       O188   2.054       .  S
Ti171       O185   2.162   1_554  S
Ti171       O194   2.150   1_554  S
O172       Ti178   2.168       .  S
O173       Ti215   2.157   1_655  S
O173       Ti177   2.154       .  S
C174        C573   1.496       .  S
C174        O194   1.269       .  A
C174        O198   1.263       .  A
O175       Ti209   2.136       .  S
O175       Ti215   2.119       .  S
C176        C453   1.509       .  S
C176        O202   1.276       .  A
C176        O208   1.274       .  A
Ti177       O192   2.164       .  S
Ti177       O183   2.164       .  S
Ti177       O214   2.109       .  S
Ti177       O203   2.155       .  S
Ti177       O199   2.142       .  S
Ti178       O186   2.156       .  S
Ti178       O206   2.172   1_554  S
Ti178       O182   2.111       .  S
Ti178       O193   2.156   1_554  S
Ti179       O184   2.163       .  S
Ti179       O210   2.150       .  S
Ti179       O204   2.137       .  S
Ti179       O207   2.147       .  S
O180        C196   1.277       .  A
O180       Ti215   2.161       .  S
O181       Ti215   2.095   1_655  S
O184       Ti201   2.146       .  S
O185        C200   1.274       .  A
O187        C196   1.279       .  A
O187       Ti209   2.167       .  S
O188        C191   1.261       .  A
O190       Ti201   2.151   1_455  S
C191        C320   1.445       .  S
C191        O205   1.276       .  A
O192       Ti215   2.165   1_655  S
O193        C195   1.276       .  A
C195        C513   1.506       .  S
C195        O210   1.274       .  A
C196        C600   1.514       .  S
C197        C353   1.447       .  S
C197        O207   1.273       .  A
O198       Ti201   2.123   1_455  S
C200        C483   1.512       .  S
C200        O212   1.271       .  A
Ti201       O212   2.148   1_655  S
O202       Ti209   2.157       .  S
O204        C213   1.273       .  A
O205       Ti209   2.151       .  S
O206        C213   1.280       .  A
O208       Ti215   2.154       .  S
Ti209       O216   2.153       .  S
Ti209       O211   2.164       .  S
C213        C543   1.507       .  S
N217        C222   1.340   1_655  A
N217        C221   1.343       .  A
N217        H249   1.043       .  S
N218        C225   1.337       .  A
N218        C226   1.336       .  A
N219        C224   1.342   1_655  A
N219        C223   1.344       .  A
N219        H250   1.045       .  S
N220        C227   1.343       .  A
N220        C228   1.342       .  A
C221        C229   1.389   1_655  A
C221        C237   1.402       .  A
C222        C238   1.388       .  A
C222        C230   1.382       .  A
C223        C231   1.390   1_655  A
C223        C240   1.403       .  A
C224        C239   1.388       .  A
C224        C232   1.381       .  A
C225        C237   1.395       .  A
C225        C233   1.387       .  A
C226        C240   1.393       .  A
C226        C234   1.387       .  A
C227        C235   1.386       .  A
C227        C238   1.399       .  A
C228        C236   1.386       .  A
C228        C239   1.398       .  A
C229        C230   1.379       .  A
C229        H241   1.082       .  S
C230        H242   1.082       .  S
C231        C232   1.375       .  A
C231        H243   1.082       .  S
C232        H244   1.082       .  S
C233        C234   1.376       .  A
C233        H245   1.082       .  S
C234        H246   1.082       .  S
C235        C236   1.379       .  A
C235        H247   1.083       .  S
C236        H248   1.082       .  S
C237        C340   1.452       .  S
C238        C433   1.480       .  S
C239        C350   1.475       .  S
C240        C420   1.452       .  S
N251        C256   1.344       .  A
N251        C255   1.345       .  A
N251        H283   1.044       .  S
N252        C259   1.336       .  A
N252        C260   1.336       .  A
N253        C258   1.342       .  A
N253        C257   1.344       .  A
N253        H284   1.043       .  S
N254        C261   1.343       .  A
N254        C262   1.342       .  A
C255        C263   1.392       .  A
C255        C271   1.408       .  A
C256        C272   1.385       .  A
C256        C264   1.380       .  A
C257        C265   1.392       .  A
C257        C274   1.407       .  A
C258        C273   1.385       .  A
C258        C266   1.380       .  A
C259        C271   1.394       .  A
C259        C267   1.387   1_545  A
C260        C274   1.394       .  A
C260        C268   1.386   1_545  A
C261        C269   1.385       .  A
C261        C272   1.394       .  A
C262        C270   1.386       .  A
C262        C273   1.396       .  A
C263        C264   1.372       .  A
C263        H275   1.082       .  S
C264        H276   1.082       .  S
C265        C266   1.375       .  A
C265        H277   1.082       .  S
C266        H278   1.082       .  S
C267        C268   1.376       .  A
C267        H279   1.083       .  S
C268        H280   1.082       .  S
C269        C270   1.374       .  A
C269        H281   1.082       .  S
C270        H282   1.083       .  S
C271        C400   1.453       .  S
C272        C380   1.462       .  S
C273        C410   1.464       .  S
C274        C390   1.454       .  S
N285        C290   1.345       .  A
N285        C289   1.343   1_554  A
N285        H317   1.044       .  S
N286        C293   1.343       .  A
N286        C294   1.344       .  A
N287        C292   1.344       .  A
N287        C291   1.342   1_554  A
N287        H318   1.044       .  S
N288        C295   1.337       .  A
N288        C296   1.337       .  A
C289        C297   1.381       .  A
C289        C305   1.389       .  A
C290        C306   1.408       .  A
C290        C298   1.391   1_554  A
C291        C299   1.381       .  A
C291        C308   1.386       .  A
C292        C307   1.406       .  A
C292        C300   1.391   1_554  A
C293        C305   1.400       .  A
C293        C301   1.387       .  A
C294        C308   1.400       .  A
C294        C302   1.386       .  A
C295        C303   1.388       .  A
C295        C306   1.396       .  A
C296        C304   1.386       .  A
C296        C307   1.395       .  A
C297        C298   1.377       .  A
C297        H309   1.082       .  S
C298        H310   1.082       .  S
C299        C300   1.377       .  A
C299        H311   1.082       .  S
C300        H312   1.082       .  S
C301        C302   1.378       .  A
C301        H313   1.083       .  S
C302        H314   1.082       .  S
C303        C304   1.376       .  A
C303        H315   1.082       .  S
C304        H316   1.082       .  S
C305        C360   1.475       .  S
C306        C330   1.457       .  S
C307        C370   1.454       .  S
C308        C323   1.474       .  S
C319        C320   1.395       .  A
C319        C324   1.395       .  A
C319        H326   1.083       .  S
C320        C321   1.405       .  A
C321        C322   1.384   1_554  A
C321        F328   1.358       .  S
C322        C323   1.398       .  A
C322        H327   1.083       .  S
C323        C324   1.416   1_556  A
C324        F325   1.356       .  S
C329        C330   1.396       .  A
C329        C334   1.392       .  A
C329        H336   1.083       .  S
C330        C331   1.402       .  A
C331        C332   1.384       .  A
C331        F338   1.358       .  S
C332        C333   1.397       .  A
C332        H337   1.084       .  S
C333        C334   1.406       .  A
C334        F335   1.357       .  S
C339        C340   1.399       .  A
C339        C344   1.384       .  A
C339        H346   1.084   1_655  S
C340        C341   1.397       .  A
C341        C342   1.389       .  A
C341        F348   1.357       .  S
C342        C343   1.402       .  A
C342        H347   1.084       .  S
C343        C344   1.401       .  A
C344        F345   1.358   1_655  S
C349        C350   1.398       .  A
C349        C354   1.381   1_455  A
C349        H356   1.081       .  S
C350        C351   1.416   1_455  A
C351        C352   1.397       .  A
C351        F358   1.356       .  S
C352        C353   1.396       .  A
C352        H357   1.083       .  S
C353        C354   1.403       .  A
C354        F355   1.358   1_655  S
C359        C360   1.399       .  A
C359        C364   1.383       .  A
C359        H366   1.082       .  S
C360        C361   1.417   1_556  A
C361        C362   1.394       .  A
C361        F368   1.356       .  S
C362        C363   1.394       .  A
C362        H367   1.083       .  S
C363        C364   1.403   1_554  A
C364        F365   1.357       .  S
C369        C370   1.396       .  A
C369        C374   1.389       .  A
C369        H376   1.083       .  S
C370        C371   1.403       .  A
C371        C372   1.385       .  A
C371        F378   1.358       .  S
C372        C373   1.397       .  A
C372        H377   1.084       .  S
C373        C374   1.403       .  A
C374        F375   1.358       .  S
C379        C380   1.392       .  A
C379        C384   1.381       .  A
C379        H386   1.083       .  S
C380        C381   1.412       .  A
C381        C382   1.394       .  A
C381        F388   1.358       .  S
C382        C383   1.396       .  A
C382        H387   1.083       .  S
C383        C384   1.409       .  A
C384        F385   1.357       .  S
C389        C390   1.394       .  A
C389        C394   1.388       .  A
C389        H396   1.083   1_545  S
C390        C391   1.403       .  A
C391        C392   1.384       .  A
C391        F398   1.358       .  S
C392        C393   1.397       .  A
C392        H397   1.084       .  S
C393        C394   1.406       .  A
C394        F395   1.358   1_545  S
C399        C400   1.403       .  A
C399        C404   1.384       .  A
C399        H406   1.084       .  S
C400        C401   1.395       .  A
C401        C402   1.388       .  A
C401        F408   1.357   1_545  S
C402        C403   1.405       .  A
C402        H407   1.084   1_545  S
C403        C404   1.396       .  A
C404        F405   1.358       .  S
C409        C410   1.393       .  A
C409        C414   1.381       .  A
C409        H416   1.083       .  S
C410        C411   1.415       .  A
C411        C412   1.391       .  A
C411        F418   1.358       .  S
C412        C413   1.393       .  A
C412        H417   1.084       .  S
C413        C414   1.407       .  A
C414        F415   1.357       .  S
C419        C420   1.395       .  A
C419        C424   1.388       .  A
C419        H426   1.083       .  S
C420        C421   1.402       .  A
C421        C422   1.383       .  A
C421        F428   1.358       .  S
C422        C423   1.396       .  A
C422        H427   1.084       .  S
C423        C424   1.404       .  A
C424        F425   1.358       .  S
C429        C430   1.395       .  A
C429        C434   1.395       .  A
C429        H436   1.084       .  S
C430        C431   1.403       .  A
C431        C432   1.383   1_655  A
C431        F438   1.358       .  S
C432        C433   1.400       .  A
C432        H437   1.082       .  S
C433        C434   1.418   1_455  A
C434        F435   1.356       .  S
C439        C440   1.413       .  A
C439        C444   1.416       .  A
C439        H446   1.083       .  S
C440        C441   1.417       .  A
C441        C442   1.410       .  A
C441        F448   1.357       .  S
C442        C443   1.409       .  A
C442        H447   1.081       .  S
C443        C444   1.416       .  A
C444        F445   1.357       .  S
C449        C450   1.411       .  A
C449        C454   1.411       .  A
C449        H456   1.083       .  S
C450        C451   1.414       .  A
C451        C452   1.405       .  A
C451        F458   1.355       .  S
C452        C453   1.407       .  A
C452        H457   1.083       .  S
C453        C454   1.416       .  A
C454        F455   1.357       .  S
C459        C460   1.408       .  A
C459        C464   1.412       .  A
C459        H466   1.083       .  S
C460        C461   1.419       .  A
C461        C462   1.410       .  A
C461        F468   1.355       .  S
C462        C463   1.406       .  A
C462        H467   1.083       .  S
C463        C464   1.419       .  A
C464        F465   1.357       .  S
C469        C470   1.414       .  A
C469        C474   1.415       .  A
C469        H476   1.083       .  S
C470        C471   1.412       .  A
C471        C472   1.405       .  A
C471        F478   1.357       .  S
C472        C473   1.409       .  A
C472        H477   1.082       .  S
C473        C474   1.413       .  A
C474        F475   1.358       .  S
C479        C480   1.409       .  A
C479        C484   1.409       .  A
C479        H486   1.083       .  S
C480        C481   1.417       .  A
C481        C482   1.410       .  A
C481        F488   1.356       .  S
C482        C483   1.409       .  A
C482        H487   1.083       .  S
C483        C484   1.415       .  A
C484        F485   1.357       .  S
C489        C490   1.413       .  A
C489        C494   1.415       .  A
C489        H496   1.083       .  S
C490        C491   1.414       .  A
C491        C492   1.406       .  A
C491        F498   1.356       .  S
C492        C493   1.410       .  A
C492        H497   1.083       .  S
C493        C494   1.415       .  A
C494        F495   1.357       .  S
C499        C500   1.411       .  A
C499        C504   1.410       .  A
C499        H506   1.083       .  S
C500        C501   1.414       .  A
C501        C502   1.406       .  A
C501        F508   1.357       .  S
C502        C503   1.409       .  A
C502        H507   1.083       .  S
C503        C504   1.414       .  A
C504        F505   1.357       .  S
C509        C510   1.410       .  A
C509        C514   1.407       .  A
C509        H516   1.083       .  S
C510        C511   1.413       .  A
C511        C512   1.406       .  A
C511        F518   1.356       .  S
C512        C513   1.409       .  A
C512        H517   1.083       .  S
C513        C514   1.414       .  A
C514        F515   1.357       .  S
C519        C520   1.408       .  A
C519        C524   1.406       .  A
C519        H526   1.083       .  S
C520        C521   1.415       .  A
C521        C522   1.407       .  A
C521        F528   1.356       .  S
C522        C523   1.407       .  A
C522        H527   1.083       .  S
C523        C524   1.415       .  A
C524        F525   1.358       .  S
C529        C530   1.410       .  A
C529        C534   1.405       .  A
C529        H536   1.083       .  S
C530        C531   1.412       .  A
C531        C532   1.408       .  A
C531        F538   1.357       .  S
C532        C533   1.411       .  A
C532        H537   1.083       .  S
C533        C534   1.412       .  A
C534        F535   1.357       .  S
C539        C540   1.408       .  A
C539        C544   1.406       .  A
C539        H546   1.083       .  S
C540        C541   1.416       .  A
C541        C542   1.408       .  A
C541        F548   1.356       .  S
C542        C543   1.407       .  A
C542        H547   1.083       .  S
C543        C544   1.416       .  A
C544        F545   1.358       .  S
C549        C550   1.407       .  A
C549        C554   1.403       .  A
C549        H556   1.080       .  S
C550        C551   1.411       .  A
C551        C552   1.406       .  A
C551        F558   1.357       .  S
C552        C553   1.409       .  A
C552        H557   1.083       .  S
C553        C554   1.410       .  A
C554        F555   1.357       .  S
C559        C560   1.410       .  A
C559        C564   1.411       .  A
C559        H566   1.083       .  S
C560        C561   1.414       .  A
C561        C562   1.411       .  A
C561        F568   1.357       .  S
C562        C563   1.411       .  A
C562        H567   1.083       .  S
C563        C564   1.414       .  A
C564        F565   1.357       .  S
C569        C570   1.406       .  A
C569        C574   1.405       .  A
C569        H576   1.083       .  S
C570        C571   1.413       .  A
C571        C572   1.404       .  A
C571        F578   1.357       .  S
C572        C573   1.405       .  A
C572        H577   1.082       .  S
C573        C574   1.413       .  A
C574        F575   1.357       .  S
C579        C580   1.405       .  A
C579        C584   1.403       .  A
C579        H586   1.083       .  S
C580        C581   1.417       .  A
C581        C582   1.408       .  A
C581        F588   1.357       .  S
C582        C583   1.406       .  A
C582        H587   1.083       .  S
C583        C584   1.416       .  A
C584        F585   1.357       .  S
C589        C590   1.409       .  A
C589        C594   1.406       .  A
C589        H596   1.083       .  S
C590        C591   1.414       .  A
C591        C592   1.409       .  A
C591        F598   1.357       .  S
C592        C593   1.410       .  A
C592        H597   1.083       .  S
C593        C594   1.413       .  A
C594        F595   1.357       .  S
C599        C600   1.412       .  A
C599        C604   1.410       .  A
C599        H606   1.083       .  S
C600        C601   1.413       .  A
C601        C602   1.409       .  A
C601        F608   1.357       .  S
C602        C603   1.411       .  A
C602        H607   1.083       .  S
C603        C604   1.413       .  A
C604        F605   1.357       .  S
C609        C610   1.408       .  A
C609        C614   1.403       .  A
C609        H616   1.083       .  S
C610        C611   1.413       .  A
C611        C612   1.409       .  A
C611        F618   1.357       .  S
C612        C613   1.411       .  A
C612        H617   1.083       .  S
C613        C614   1.413       .  A
C614        F615   1.357       .  S
C619        C620   1.412       .  A
C619        C624   1.409       .  A
C619        H626   1.083       .  S
C620        C621   1.414       .  A
C621        C622   1.406       .  A
C621        F628   1.357       .  S
C622        C623   1.411       .  A
C622        H627   1.083       .  S
C623        C624   1.411       .  A
C624        F625   1.357       .  S
C629        C630   1.409       .  A
C629        C634   1.408       .  A
C629        H636   1.083       .  S
C630        C631   1.415       .  A
C631        C632   1.410       .  A
C631        F638   1.357       .  S
C632        C633   1.410       .  A
C632        H637   1.083       .  S
C633        C634   1.414       .  A
C634        F635   1.357       .  S
C639        C640   1.409       .  A
C639        C644   1.406       .  A
C639        H646   1.083       .  S
C640        C641   1.414       .  A
C641        C642   1.409       .  A
C641        F648   1.356       .  S
C642        C643   1.410       .  A
C642        H647   1.083       .  S
C643        C644   1.414       .  A
C644        F645   1.357       .  S
C649        C650   1.411       .  A
C649        C654   1.413       .  A
C649        H656   1.083       .  S
C650        C651   1.415       .  A
C651        C652   1.406       .  A
C651        F658   1.356       .  S
C652        C653   1.409       .  A
C652        H657   1.083       .  S
C653        C654   1.415       .  A
C654        F655   1.357       .  S
C659        C660   1.409       .  A
C659        C664   1.402       .  A
C659        H666   1.083       .  S
C660        C661   1.412       .  A
C661        C662   1.407       .  A
C661        F668   1.356       .  S
C662        C663   1.409       .  A
C662        H667   1.083       .  S
C663        C664   1.411       .  A
C664        F665   1.357       .  S
C669        C670   1.404       .  A
C669        C674   1.405       .  A
C669        H676   1.083       .  S
C670        C671   1.418       .  A
C671        C672   1.409       .  A
C671        F678   1.357       .  S
C672        C673   1.405       .  A
C672        H677   1.083       .  S
C673        C674   1.417       .  A
C674        F675   1.357       .  S
