geometry optimzed in LAMMPS
_audit_creation_date              2020-12-01 
_audit_creation_method            'lammps2cif' 
_symmetry_space_group_name_H-M    'P1' 
_symmetry_Int_Tables_number       1 
_symmetry_cell_setting            triclinic 
loop_ 
_symmetry_equiv_pos_as_xyz 
  x,y,z 
_cell_length_a                    61.16315122 
_cell_length_b                    61.14647542785117 
_cell_length_c                    61.13317651546471 
_cell_angle_alpha                 89.87382294186911 
_cell_angle_beta                  90.1268440718958 
_cell_angle_gamma                 89.91826473847152 
loop_ 
_atom_site_label 
_atom_site_type_symbol 
_atom_site_fract_x 
_atom_site_fract_y 
_atom_site_fract_z 
_atom_site_charge 
O1          O  0.04216138  0.47528188  0.89221681    -0.74700
O2          O  0.03159791  0.50858274  0.84005657    -0.74700
O3          O  0.00724894  0.49467220  0.87410255    -0.74800
O4          O  0.06702249  0.48941827  0.85858398    -0.74800
O5          O  0.05966876  0.45888307  0.84008493    -0.74800
O6          O  0.99928548  0.46366865  0.85667661    -0.74700
O7          O  0.02376234  0.47768002  0.82242884    -0.74700
O8          O  0.03524970  0.44439539  0.87414372    -0.74800
Ni9        Ni  0.03728849  0.49308900  0.86681852     1.25400
Ni10       Ni  0.02922302  0.46005826  0.84763152     1.25400
C11         C  0.04012159  0.45440659  0.89185573     0.87500
C12         C  0.02595616  0.49849717  0.82257614     0.87400
C13         C  0.99355430  0.47986949  0.86867178     0.87400
C14         C  0.07328812  0.47330226  0.84688950     0.87600
O15         O  0.05669659  0.39818947  0.04188565    -0.74700
O16         O  0.02691429  0.34389045  0.03325159    -0.74700
O17         O  0.04584586  0.36394766  0.06780123    -0.74800
O18         O  0.03768762  0.37869220  0.00782325    -0.74800
O19         O  0.06942545  0.36289441  0.99918798    -0.74800
O20         O  0.07740140  0.34756761  0.05983567    -0.74700
O21         O  0.05862333  0.32799095  0.02488512    -0.74700
O22         O  0.08846843  0.38196782  0.03418998    -0.74800
Ni23       Ni  0.04063414  0.37164435  0.03798256     1.25400
Ni24       Ni  0.07458641  0.35443672  0.02920699     1.25400
C25         C  0.07743514  0.39905504  0.03909120     0.87500
C26         C  0.03794836  0.32690033  0.02787515     0.87400
C27         C  0.06300468  0.35356427  0.07385991     0.87400
C28         C  0.05263498  0.37436256  0.99389327     0.87600
O29         O  0.88773032  0.48844973  0.96160429    -0.74700
O30         O  0.83641887  0.49593677  0.99617537    -0.74700
O31         O  0.85326149  0.46290444  0.97224737    -0.74800
O32         O  0.87154982  0.52120775  0.98510769    -0.74800
O33         O  0.85354341  0.53348055  0.95575507    -0.74800
O34         O  0.83502691  0.47491840  0.94296318    -0.74700
O35         O  0.81843137  0.50800082  0.96676335    -0.74700
O36         O  0.86977042  0.50013748  0.93193965    -0.74800
Ni37       Ni  0.86277095  0.49169767  0.97987475     1.25400
Ni38       Ni  0.84347209  0.50461402  0.94834645     1.25400
C39         C  0.88733897  0.49358925  0.94131005     0.87500
C40         C  0.81875667  0.50260313  0.98702789     0.87400
C41         C  0.84130324  0.45922651  0.95542503     0.87400
C42         C  0.86662101  0.53670103  0.97185870     0.87600
O43         O  0.12924814  0.55371877  0.05874919    -0.74700
O44         O  0.18236619  0.54331128  0.02732123    -0.74700
O45         O  0.14693105  0.51902441  0.03875601    -0.74800
O46         O  0.16425949  0.57828266  0.04744196    -0.74800
O47         O  0.18104261  0.56873082  0.07845604    -0.74800
O48         O  0.16360632  0.50922938  0.06977300    -0.74700
O49         O  0.19898065  0.53394242  0.05847447    -0.74700
O50         O  0.14585651  0.54444673  0.08994447    -0.74800
Ni51       Ni  0.15518047  0.54889484  0.04192808     1.25400
Ni52       Ni  0.17299362  0.53869226  0.07525177     1.25400
C53         C  0.12874099  0.55063757  0.07948540     0.87500
C54         C  0.19958369  0.53745333  0.03781569     0.87400
C55         C  0.15167970  0.50455987  0.05316858     0.87400
C56         C  0.17544211  0.58330606  0.06442562     0.87600
O57         O  0.97616177  0.57050341  0.13689462    -0.74700
O58         O  0.98963470  0.54160309  0.19075150    -0.74700
O59         O  0.95325795  0.55958957  0.17309003    -0.74800
O60         O  0.01206347  0.55253037  0.15397815    -0.74800
O61         O  0.02120048  0.58439390  0.16918789    -0.74800
O62         O  0.96160065  0.59168465  0.18814288    -0.74700
O63         O  0.99802255  0.57369404  0.20581772    -0.74700
O64         O  0.98478085  0.60261172  0.15186150    -0.74800
Ni65       Ni  0.98246633  0.55490509  0.16325600     1.25400
Ni66       Ni  0.99173284  0.58923707  0.17936414     1.25400
C67         C  0.97889438  0.59121025  0.13532796     0.87500
C68         C  0.99569398  0.55293558  0.20729671     0.87400
C69         C  0.94755765  0.57681581  0.18348861     0.87400
C70         C  0.02605831  0.56761920  0.15757717     0.87600
O71         O  0.96832866  0.63836828  0.97986455    -0.74700
O72         O  0.00006103  0.69179895  0.98878117    -0.74700
O73         O  0.98685042  0.65783238  0.01436299    -0.74800
O74         O  0.98160477  0.67186583  0.95382975    -0.74800
O75         O  0.95047010  0.68960912  0.96059968    -0.74800
O76         O  0.95562443  0.67537162  0.02145073    -0.74700
O77         O  0.96869355  0.70911914  0.99550591    -0.74700
O78         O  0.93707883  0.65601103  0.98635647    -0.74800
Ni79       Ni  0.98536644  0.66441382  0.98396608     1.25400
Ni80       Ni  0.95187419  0.68318384  0.99122947     1.25400
C81         C  0.94747545  0.63833621  0.98207863     0.87500
C82         C  0.98949290  0.70937053  0.99324823     0.87400
C83         C  0.97172747  0.66343908  0.02764353     0.87400
C84         C  0.96520959  0.68311290  0.94721769     0.87600
O85         O  0.88244568  0.55045334  0.56173440    -0.74700
O86         O  0.82863131  0.54418484  0.53034596    -0.74700
O87         O  0.84887910  0.57764502  0.55133339    -0.74800
O88         O  0.86250567  0.51766950  0.54109987    -0.74800
O89         O  0.84581304  0.50818911  0.57211850    -0.74800
O90         O  0.83193669  0.56847864  0.58225553    -0.74700
O91         O  0.81196283  0.53497470  0.56141750    -0.74700
O92         O  0.86560140  0.54169229  0.59290702    -0.74800
Ni93       Ni  0.85612983  0.54787618  0.54500748     1.25400
Ni94       Ni  0.83815008  0.53802705  0.57825946     1.25400
C95         C  0.88296692  0.54653782  0.58231491     0.87500
C96         C  0.81140919  0.53839774  0.54073576     0.87400
C97         C  0.83833584  0.58303728  0.56858736     0.87400
C98         C  0.85721176  0.50320369  0.55528343     0.87600
O99         O  0.94684421  0.39362382  0.54068518    -0.74700
O100        O  0.97662828  0.33940167  0.53242745    -0.74700
O101        O  0.96764120  0.37471442  0.50724080    -0.74800
O102        O  0.95558745  0.35856494  0.56626034    -0.74800
O103        O  0.92438148  0.34298056  0.55570654    -0.74800
O104        O  0.93647575  0.35923686  0.49628950    -0.74700
O105        O  0.94534374  0.32394449  0.52186833    -0.74700
O106        O  0.91539491  0.37823506  0.53037761    -0.74800
Ni107      Ni  0.96278968  0.36705998  0.53704881     1.25400
Ni108      Ni  0.92927981  0.35050803  0.52565593     1.25400
C109        C  0.92634555  0.39493232  0.53663804     0.87500
C110        C  0.96586684  0.32268314  0.52591236     0.87400
C111        C  0.95387235  0.37014328  0.49214294     0.87400
C112        C  0.93795417  0.34824977  0.57080005     0.87600
O113        O  0.97786886  0.45826624  0.38278863    -0.74700
O114        O  0.98971734  0.48740991  0.32883333    -0.74700
O115        O  0.95430623  0.46769518  0.34653866    -0.74800
O116        O  0.01292095  0.47783489  0.36552002    -0.74800
O117        O  0.02351716  0.44627601  0.35063602    -0.74800
O118        O  0.96444930  0.43608231  0.33154305    -0.74700
O119        O  0.99994078  0.45575689  0.31397771    -0.74700
O120        O  0.98779805  0.42640307  0.36805995    -0.74800
Ni121      Ni  0.98334129  0.47393019  0.35636218     1.25400
Ni122      Ni  0.99432701  0.43999206  0.34048558     1.25400
C123        C  0.98111696  0.43764350  0.38440175     0.87500
C124        C  0.99657607  0.47638906  0.31241442     0.87400
C125        C  0.94959504  0.45016449  0.33612873     0.87400
C126        C  0.02774093  0.46354882  0.36174285     0.87600
O127        O  0.13631557  0.48601760  0.45268037    -0.74700
O128        O  0.19013733  0.49912481  0.48193476    -0.74700
O129        O  0.15241976  0.52121794  0.47312907    -0.74800
O130        O  0.17369878  0.46366844  0.46119069    -0.74800
O131        O  0.18787832  0.47541546  0.42974618    -0.74800
O132        O  0.16675610  0.53323073  0.44180668    -0.74700
O133        O  0.20438685  0.51075700  0.45048582    -0.74700
O134        O  0.15038990  0.49753222  0.42105735    -0.74800
Ni135      Ni  0.16271735  0.49210000  0.46836521     1.25400
Ni136      Ni  0.17789171  0.50469893  0.43466722     1.25400
C137        C  0.13437782  0.48981856  0.43215436     0.87500
C138        C  0.20629116  0.50676986  0.47101266     0.87400
C139        C  0.15547707  0.53652222  0.45914239     0.87400
C140        C  0.18415967  0.45997124  0.44343561     0.87600
O141        O  0.04001822  0.56622437  0.63146813    -0.74700
O142        O  0.02947359  0.53557318  0.68467206    -0.74700
O143        O  0.00525194  0.54618651  0.64900993    -0.74800
O144        O  0.06437535  0.55597962  0.66692725    -0.74800
O145        O  0.05411210  0.58697901  0.68312236    -0.74800
O146        O  0.99516581  0.57734990  0.66501531    -0.74700
O147        O  0.01933212  0.56662445  0.70079854    -0.74700
O148        O  0.03033596  0.59762945  0.64727045    -0.74800
Ni149      Ni  0.03512824  0.54985802  0.65751376     1.25400
Ni150      Ni  0.02434843  0.58325497  0.67464327     1.25400
C151        C  0.03672550  0.58686774  0.63047171     0.87500
C152        C  0.02297261  0.54598598  0.70160212     0.87400
C153        C  0.99058370  0.56042224  0.65360906     0.87400
C154        C  0.06897290  0.57320583  0.67790144     0.87600
O155        O  0.05433188  0.63652354  0.47555670    -0.74700
O156        O  0.01969683  0.68763785  0.48579579    -0.74700
O157        O  0.03895669  0.66960858  0.45039479    -0.74800
O158        O  0.03515985  0.65414198  0.51049748    -0.74800
O159        O  0.06554984  0.67290056  0.51790839    -0.74800
O160        O  0.06916651  0.68881330  0.45708988    -0.74700
O161        O  0.04998406  0.70652802  0.49299742    -0.74700
O162        O  0.08478039  0.65547579  0.48209448    -0.74800
Ni163      Ni  0.03595335  0.66140478  0.48030437     1.25400
Ni164      Ni  0.06844080  0.68171129  0.48776467     1.25400
C165        C  0.07516961  0.63742424  0.47759355     0.87500
C166        C  0.02912524  0.70557028  0.49108113     0.87400
C167        C  0.05478239  0.68147931  0.44366654     0.87400
C168        C  0.05010030  0.66006929  0.52388235     0.87600
O169        O  0.54329481  0.56668119  0.89350237    -0.74700
O170        O  0.53390228  0.53402973  0.84074062    -0.74700
O171        O  0.56873166  0.55361408  0.85969558    -0.74800
O172        O  0.50881104  0.54700114  0.87523122    -0.74800
O173        O  0.50050276  0.57791936  0.85754376    -0.74800
O174        O  0.56100586  0.58443871  0.84174709    -0.74700
O175        O  0.52592439  0.56500716  0.82316618    -0.74700
O176        O  0.53569045  0.59760527  0.87559133    -0.74800
Ni177      Ni  0.53895594  0.54919111  0.86782705     1.25400
Ni178      Ni  0.53044632  0.58230335  0.84880409     1.25400
C179        C  0.54076317  0.58750841  0.89325550     0.87500
C180        C  0.52879796  0.54425851  0.82309706     0.87400
C181        C  0.57489599  0.57014382  0.84841926     0.87400
C182        C  0.49506660  0.56184341  0.86988455     0.87600
O183        O  0.39113100  0.56053119  0.96886321    -0.74700
O184        O  0.33830413  0.55098174  0.00100565    -0.74700
O185        O  0.37306543  0.52591996  0.98900689    -0.74800
O186        O  0.35682051  0.58573116  0.98074544    -0.74800
O187        O  0.33983997  0.57692791  0.94970946    -0.74800
O188        O  0.35543440  0.51677444  0.95838896    -0.74700
O189        O  0.32105768  0.54239103  0.97006406    -0.74700
O190        O  0.37409001  0.55132119  0.93798260    -0.74800
Ni191      Ni  0.36537336  0.55608810  0.98603497     1.25400
Ni192      Ni  0.34694701  0.54653096  0.95295632     1.25400
C193        C  0.39143107  0.55726143  0.94816118     0.87500
C194        C  0.32085801  0.54536257  0.99080697     0.87400
C195        C  0.36747171  0.51161734  0.97479066     0.87400
C196        C  0.34589079  0.59128379  0.96372375     0.87600
O197        O  0.45868203  0.40214418  0.98031134    -0.74700
O198        O  0.48985344  0.34850223  0.98633918    -0.74700
O199        O  0.46903051  0.36883554  0.95325763    -0.74800
O200        O  0.47934464  0.38201508  0.01299415    -0.74800
O201        O  0.44826414  0.36545887  0.02242885    -0.74800
O202        O  0.43824792  0.35138243  0.96190990    -0.74700
O203        O  0.45902975  0.33143422  0.99559040    -0.74700
O204        O  0.42745757  0.38529499  0.98871797    -0.74800
Ni205      Ni  0.47530678  0.37587081  0.98288009     1.25400
Ni206      Ni  0.44212035  0.35769370  0.99249936     1.25400
C207        C  0.43811957  0.40273351  0.98409388     0.87500
C208        C  0.47962850  0.33108545  0.99177645     0.87400
C209        C  0.45205712  0.35801593  0.94760690     0.87400
C210        C  0.46507055  0.37697555  0.02738006     0.87600
O211        O  0.47510243  0.47521792  0.12954314    -0.74700
O212        O  0.48211356  0.50948588  0.18118327    -0.74700
O213        O  0.50865153  0.49543782  0.14865023    -0.74800
O214        O  0.44819387  0.48920028  0.16163282    -0.74800
O215        O  0.45550270  0.45923056  0.18118280    -0.74800
O216        O  0.51639895  0.46491328  0.16715989    -0.74700
O217        O  0.48994811  0.47925915  0.20010475    -0.74700
O218        O  0.48180265  0.44475389  0.14860514    -0.74800
Ni219      Ni  0.47825072  0.49342811  0.15466145     1.25400
Ni220      Ni  0.48619114  0.46097262  0.17503304     1.25400
C221        C  0.47772391  0.45445158  0.13046924     0.87500
C222        C  0.48694012  0.49998452  0.19925190     0.87400
C223        C  0.52228763  0.48071439  0.15467357     0.87400
C224        C  0.44181202  0.47319697  0.17349973     0.87600
O225        O  0.57040753  0.64623424  0.04281884    -0.74700
O226        O  0.54130252  0.70075812  0.03313815    -0.74700
O227        O  0.54860427  0.66397727  0.00938406    -0.74800
O228        O  0.56338393  0.68259985  0.06698205    -0.74800
O229        O  0.59442724  0.69725911  0.05484298    -0.74800
O230        O  0.57960815  0.67832096  0.99665288    -0.74700
O231        O  0.57230805  0.71524172  0.02072752    -0.74700
O232        O  0.60175408  0.66041939  0.03078480    -0.74800
Ni233      Ni  0.55484205  0.67299447  0.03854226     1.25400
Ni234      Ni  0.58814792  0.68839343  0.02528466     1.25400
C235        C  0.59062856  0.64411671  0.03786606     0.87500
C236        C  0.55196891  0.71708713  0.02550166     0.87400
C237        C  0.56204125  0.66724758  0.99372055     0.87400
C238        C  0.58127866  0.69285119  0.07055675     0.87600
O239        O  0.62775539  0.48460962  0.05905239    -0.74700
O240        O  0.68086055  0.49007219  0.02659531    -0.74700
O241        O  0.65982324  0.45664980  0.04686798    -0.74800
O242        O  0.64822614  0.51751936  0.03884940    -0.74800
O243        O  0.66615382  0.52531183  0.06967392    -0.74800
O244        O  0.67826417  0.46399718  0.07747054    -0.74700
O245        O  0.69881535  0.49768046  0.05741467    -0.74700
O246        O  0.64585117  0.49153055  0.09001735    -0.74800
Ni247      Ni  0.65361479  0.48691001  0.04172748     1.25400
Ni248      Ni  0.67297490  0.49488383  0.07473526     1.25400
C249        C  0.62800726  0.48761752  0.07977974     0.87500
C250        C  0.69862498  0.49484926  0.03666653     0.87400
C251        C  0.67076048  0.45020647  0.06356442     0.87400
C252        C  0.65455060  0.53134828  0.05321129     0.87600
O253        O  0.45625187  0.64939414  0.54058239    -0.74700
O254        O  0.49064010  0.70102469  0.53497399    -0.74700
O255        O  0.46581789  0.68347023  0.56720521    -0.74800
O256        O  0.48045560  0.66677076  0.50865689    -0.74800
O257        O  0.45130247  0.68489223  0.49612053    -0.74800
O258        O  0.43695120  0.70187126  0.55450086    -0.74700
O259        O  0.46159605  0.71917999  0.52232595    -0.74700
O260        O  0.42683310  0.66748785  0.52856721    -0.74800
Ni261      Ni  0.47436670  0.67459690  0.53832136     1.25400
Ni262      Ni  0.44315452  0.69404195  0.52491780     1.25400
C263        C  0.43603684  0.64984020  0.53521877     0.87500
C264        C  0.48180737  0.71866696  0.52788714     0.87400
C265        C  0.44887367  0.69539442  0.57049748     0.87400
C266        C  0.46780685  0.67241962  0.49287985     0.87600
O267        O  0.47464895  0.57653983  0.38828172    -0.74700
O268        O  0.48033692  0.54305270  0.33602286    -0.74700
O269        O  0.50717312  0.55421956  0.36948545    -0.74800
O270        O  0.44739179  0.56570540  0.35494320    -0.74800
O271        O  0.45757359  0.59564495  0.33679290    -0.74800
O272        O  0.51750616  0.58407213  0.35120715    -0.74700
O273        O  0.49033658  0.57303811  0.31782058    -0.74700
O274        O  0.48458967  0.60671258  0.37029071    -0.74800
Ni275      Ni  0.47699261  0.55880927  0.36277036     1.25400
Ni276      Ni  0.48784997  0.59094334  0.34335079     1.25400
C277        C  0.47920770  0.59696090  0.38805234     0.87500
C278        C  0.48618227  0.55250607  0.31827154     0.87400
C279        C  0.52210668  0.56747422  0.36320170     0.87400
C280        C  0.44259939  0.58259353  0.34343290     0.87600
O281        O  0.63577121  0.54562817  0.44692026    -0.74700
O282        O  0.69105812  0.53623623  0.47393286    -0.74700
O283        O  0.67093581  0.57086693  0.45551529    -0.74800
O284        O  0.65583893  0.51106114  0.46527506    -0.74800
O285        O  0.66878529  0.50238636  0.43233467    -0.74800
O286        O  0.68658786  0.56202482  0.42380048    -0.74700
O287        O  0.70547970  0.52646795  0.44195812    -0.74700
O288        O  0.65009740  0.53833500  0.41420600    -0.74800
Ni289      Ni  0.66294652  0.54124523  0.46152811     1.25400
Ni290      Ni  0.67828789  0.53192297  0.42688452     1.25400
C291        C  0.63370202  0.54347195  0.42621164     0.87500
C292        C  0.70748265  0.53015458  0.46252395     0.87400
C293        C  0.68150981  0.57626176  0.43827879     0.87400
C294        C  0.65907300  0.49700783  0.45013614     0.87600
O295        O  0.57649301  0.39114486  0.48045022    -0.74700
O296        O  0.53697052  0.34370824  0.49111502    -0.74700
O297        O  0.54989915  0.37984467  0.51374348    -0.74800
O298        O  0.56375756  0.35554733  0.45812379    -0.74800
O299        O  0.59155202  0.33700135  0.47285956    -0.74800
O300        O  0.57609150  0.35968607  0.52931503    -0.74700
O301        O  0.56436858  0.32402871  0.50509340    -0.74700
O302        O  0.60330364  0.37252247  0.49693581    -0.74800
Ni303      Ni  0.55577142  0.36819920  0.48539475     1.25400
Ni304      Ni  0.58477575  0.34758845  0.50165644     1.25400
C305        C  0.59631607  0.38968049  0.48706682     0.87500
C306        C  0.54435702  0.32571342  0.49902405     0.87400
C307        C  0.56099534  0.37419632  0.53061979     0.87400
C308        C  0.58011287  0.34262188  0.45616235     0.87600
O309        O  0.54395459  0.47543658  0.63061468    -0.74700
O310        O  0.53660948  0.50771308  0.68385365    -0.74700
O311        O  0.56991767  0.48512890  0.66517707    -0.74800
O312        O  0.51085747  0.49795742  0.64877481    -0.74800
O313        O  0.49957502  0.46770980  0.66577155    -0.74800
O314        O  0.55875416  0.45500672  0.68245312    -0.74700
O315        O  0.52545142  0.47735099  0.70067037    -0.74700
O316        O  0.53322968  0.44503738  0.64772489    -0.74800
Ni317      Ni  0.54072186  0.49267571  0.65655655     1.25400
Ni318      Ni  0.52881224  0.46022064  0.67475702     1.25400
C319        C  0.53981894  0.45489594  0.63045368     0.87500
C320        C  0.53009415  0.49775625  0.70114918     0.87400
C321        C  0.57409744  0.46793585  0.67645442     0.87400
C322        C  0.49555628  0.48471855  0.65411326     0.87600
O323        O  0.38385141  0.49906271  0.56659265    -0.74700
O324        O  0.32901660  0.50574669  0.53690910    -0.74700
O325        O  0.36463002  0.53128546  0.54405725    -0.74800
O326        O  0.34846265  0.47316632  0.55975593    -0.74800
O327        O  0.33340900  0.48544589  0.59055128    -0.74800
O328        O  0.34949337  0.54389437  0.57472433    -0.74700
O329        O  0.31387688  0.51787429  0.56773206    -0.74700
O330        O  0.36889989  0.51115671  0.59755851    -0.74800
Ni331      Ni  0.35695580  0.50185996  0.55073610     1.25400
Ni332      Ni  0.34083828  0.51507540  0.58372665     1.25400
C333        C  0.38553810  0.50438269  0.58678202     0.87500
C334        C  0.31228603  0.51253843  0.54750721     0.87400
C335        C  0.36048575  0.54702493  0.55717161     0.87400
C336        C  0.33822943  0.46966273  0.57768308     0.87600
O337        O  0.55781058  0.90674364  0.54621458    -0.74700
O338        O  0.52472680  0.85469313  0.53720732    -0.74700
O339        O  0.54696392  0.87181020  0.57140292    -0.74800
O340        O  0.53576897  0.88969003  0.51251514    -0.74800
O341        O  0.56588884  0.87247673  0.50132576    -0.74800
O342        O  0.57708296  0.85452413  0.56037728    -0.74700
O343        O  0.55492182  0.83737585  0.52635506    -0.74700
O344        O  0.58815359  0.88958755  0.53546814    -0.74800
Ni345      Ni  0.54024665  0.88129893  0.54225670     1.25400
Ni346      Ni  0.57259366  0.86284035  0.53049888     1.25400
C347        C  0.57826407  0.90692090  0.54181065     0.87500
C348        C  0.53437831  0.83741954  0.53039559     0.87400
C349        C  0.56382814  0.86007236  0.57560842     0.87400
C350        C  0.54921707  0.88457745  0.49733182     0.87600
O351        O  0.53384606  0.97762677  0.39202744    -0.74700
O352        O  0.52768293  0.01190958  0.34012850    -0.74700
O353        O  0.50172234  0.00198249  0.37482882    -0.74800
O354        O  0.56016054  0.98705442  0.35754782    -0.74800
O355        O  0.54735520  0.95792077  0.33984757    -0.74800
O356        O  0.48900701  0.97305518  0.35661001    -0.74700
O357        O  0.51530498  0.98268890  0.32222515    -0.74700
O358        O  0.52133658  0.94827335  0.37431676    -0.74800
Ni359      Ni  0.53133414  0.99571519  0.36669835     1.25400
Ni360      Ni  0.51778570  0.96446502  0.34759492     1.25400
C361        C  0.52825137  0.95748106  0.39180759     0.87500
C362        C  0.52068637  0.00292705  0.32255470     0.87400
C363        C  0.48585468  0.98961617  0.36900766     0.87400
C364        C  0.56340555  0.96992237  0.34590289     0.87600
O365        O  0.45752222  0.14233447  0.47128929    -0.74700
O366        O  0.49319136  0.19256350  0.48188623    -0.74700
O367        O  0.48156727  0.15654231  0.50529570    -0.74800
O368        O  0.46875359  0.17783153  0.44778959    -0.74800
O369        O  0.43958192  0.19546543  0.46068655    -0.74800
O370        O  0.45308699  0.17519084  0.51837091    -0.74700
O371        O  0.46417448  0.21083223  0.49418097    -0.74700
O372        O  0.42859246  0.15989954  0.48473486    -0.74800
Ni373      Ni  0.47634108  0.16676885  0.47612823     1.25400
Ni374      Ni  0.44535366  0.18602511  0.48998189     1.25400
C375        C  0.43720119  0.14273439  0.47629771     0.87500
C376        C  0.48460616  0.21006687  0.48958080     0.87400
C377        C  0.46911555  0.16197614  0.52120251     0.87400
C378        C  0.45173399  0.18968636  0.44467259     0.87600
O379        O  0.37605488  0.99403849  0.46063830    -0.74700
O380        O  0.32221448  0.00357172  0.49099875    -0.74700
O381        O  0.34034495  0.96910222  0.46972716    -0.74800
O382        O  0.35823359  0.02792973  0.48162558    -0.74800
O383        O  0.34289465  0.03907516  0.45033713    -0.74800
O384        O  0.32459220  0.98023245  0.43873492    -0.74700
O385        O  0.30670619  0.01465095  0.45984970    -0.74700
O386        O  0.36058307  0.00476314  0.42933807    -0.74800
Ni387      Ni  0.34966978  0.99823013  0.47687305     1.25400
Ni388      Ni  0.33305278  0.01006340  0.44348497     1.25400
C389        C  0.37744731  0.99858691  0.44021196     0.87500
C390        C  0.30549088  0.01050846  0.48038380     0.87400
C391        C  0.32954570  0.96491632  0.45223247     0.87400
C392        C  0.35440636  0.04286857  0.46743375     0.87600
O393        O  0.47715886  0.06658559  0.62850192    -0.74700
O394        O  0.48240912  0.03830843  0.68446415    -0.74700
O395        O  0.44925663  0.05726858  0.66163566    -0.74800
O396        O  0.50981544  0.04762595  0.65061060    -0.74800
O397        O  0.51801435  0.07952784  0.66632389    -0.74800
O398        O  0.45693645  0.08932848  0.67710726    -0.74700
O399        O  0.48998345  0.07048938  0.69976706    -0.74700
O400        O  0.48489835  0.09857629  0.64417216    -0.74800
Ni401      Ni  0.47936118  0.05125297  0.65586842     1.25400
Ni402      Ni  0.48775939  0.08557575  0.67247676     1.25400
C403        C  0.48054352  0.08723708  0.62714144     0.87500
C404        C  0.48680855  0.04986927  0.70140838     0.87400
C405        C  0.44299299  0.07499646  0.67081780     0.87400
C406        C  0.52366479  0.06243919  0.65561182     0.87600
O407        O  0.63215950  0.05989839  0.56223561    -0.74700
O408        O  0.68575251  0.04975480  0.53195106    -0.74700
O409        O  0.65005296  0.02569997  0.54180869    -0.74800
O410        O  0.66749931  0.08456281  0.55251569    -0.74800
O411        O  0.68313404  0.07422175  0.58385373    -0.74800
O412        O  0.66624751  0.01483508  0.57274518    -0.74700
O413        O  0.70174732  0.03973495  0.56322804    -0.74700
O414        O  0.64771810  0.04920291  0.59349866    -0.74800
Ni415      Ni  0.65840965  0.05538045  0.54600681     1.25400
Ni416      Ni  0.67533947  0.04414483  0.57945414     1.25400
C417        C  0.63089448  0.05567148  0.58272442     0.87500
C418        C  0.70256888  0.04301521  0.54254395     0.87400
C419        C  0.65464662  0.01075579  0.55575943     0.87400
C420        C  0.67792001  0.08921379  0.57007876     0.87600
O421        O  0.45855477  0.89503842  0.04138262    -0.74700
O422        O  0.48683517  0.83970683  0.03295608    -0.74700
O423        O  0.47824044  0.87518166  0.00756525    -0.74800
O424        O  0.46680371  0.85965696  0.06714084    -0.74800
O425        O  0.43506775  0.84484200  0.05705495    -0.74800
O426        O  0.44655682  0.86018580  0.99748726    -0.74700
O427        O  0.45500512  0.82485678  0.02323666    -0.74700
O428        O  0.42664098  0.88040661  0.03159897    -0.74800
Ni429      Ni  0.47374975  0.86786296  0.03763343     1.25400
Ni430      Ni  0.43968899  0.85204508  0.02697042     1.25400
C431        C  0.43802135  0.89696839  0.03762201     0.87500
C432        C  0.47558676  0.82310448  0.02691341     0.87400
C433        C  0.46405468  0.87066444  0.99281630     0.87400
C434        C  0.44904356  0.84962147  0.07191460     0.87600
O435        O  0.38688366  0.05527294  0.06345175    -0.74700
O436        O  0.33549466  0.04442668  0.02987236    -0.74700
O437        O  0.35105520  0.07921159  0.05244647    -0.74800
O438        O  0.37165111  0.02085216  0.04137196    -0.74800
O439        O  0.35419811  0.00902638  0.07112556    -0.74800
O440        O  0.33405089  0.06749072  0.08244660    -0.74700
O441        O  0.31826472  0.03298789  0.05987359    -0.74700
O442        O  0.37000475  0.04370142  0.09367779    -0.74800
Ni443      Ni  0.36179594  0.05037604  0.04570362     1.25400
Ni444      Ni  0.34349083  0.03787057  0.07784542     1.25400
C445        C  0.38712634  0.05067071  0.08386301     0.87500
C446        C  0.31826069  0.03729550  0.03934490     0.87400
C447        C  0.33921777  0.08303264  0.06932729     0.87400
C448        C  0.36678860  0.00545431  0.05476068     0.87600
O449        O  0.47514243  0.95974304  0.88214790    -0.74700
O450        O  0.48215197  0.98842568  0.82679437    -0.74700
O451        O  0.44902635  0.96732231  0.84722282    -0.74800
O452        O  0.50774831  0.98085755  0.86251463    -0.74800
O453        O  0.51909496  0.94938346  0.84799328    -0.74800
O454        O  0.45965354  0.93603124  0.83189467    -0.74700
O455        O  0.49338031  0.95700802  0.81219751    -0.74700
O456        O  0.48544763  0.92813290  0.86711220    -0.74800
Ni457      Ni  0.47810518  0.97522691  0.85507122     1.25400
Ni458      Ni  0.48981574  0.94154059  0.83917616     1.25400
C459        C  0.47953643  0.93930744  0.88375407     0.87500
C460        C  0.48880353  0.97736502  0.81027598     0.87400
C461        C  0.44447221  0.94940633  0.83745958     0.87400
C462        C  0.52289824  0.96694121  0.85883230     0.87600
O463        O  0.54384371  0.07956470  0.13497842    -0.74700
O464        O  0.53204063  0.04579003  0.18618815    -0.74700
O465        O  0.50876761  0.05762102  0.15034784    -0.74800
O466        O  0.56697388  0.06795948  0.17057985    -0.74800
O467        O  0.55563529  0.09854956  0.18677736    -0.74800
O468        O  0.49695659  0.08702458  0.16835683    -0.74700
O469        O  0.52156388  0.07600551  0.20363763    -0.74700
O470        O  0.53113293  0.10950219  0.15147036    -0.74800
Ni471      Ni  0.53825315  0.06163187  0.15994343     1.25400
Ni472      Ni  0.52588645  0.09383341  0.17820535     1.25400
C473        C  0.53953140  0.10005565  0.13478178     0.87500
C474        C  0.52525610  0.05536739  0.20350222     0.87400
C475        C  0.49332370  0.07067737  0.15582696     0.87400
C476        C  0.57100387  0.08524748  0.18165896     0.87600
O477        O  0.55174770  0.13976654  0.97951194    -0.74700
O478        O  0.51870828  0.19281776  0.98264739    -0.74700
O479        O  0.53956925  0.17082643  0.95030214    -0.74800
O480        O  0.53076216  0.16159533  0.01143587    -0.74800
O481        O  0.56224049  0.17862296  0.01864310    -0.74800
O482        O  0.56950039  0.19033886  0.95739818    -0.74700
O483        O  0.54923655  0.21093748  0.99088041    -0.74700
O484        O  0.58253436  0.15856400  0.98508329    -0.74800
Ni485      Ni  0.53408715  0.16563102  0.98068371     1.25400
Ni486      Ni  0.56693719  0.18535587  0.98828218     1.25400
C487        C  0.57257502  0.14052803  0.98165935     0.87500
C488        C  0.52855889  0.21061649  0.98756931     0.87400
C489        C  0.55599726  0.18198917  0.94369438     0.87400
C490        C  0.54537674  0.16793685  0.02497237     0.87600
O491        O  0.62926042  0.99002855  0.95222583    -0.74700
O492        O  0.68390202  0.00104656  0.98073520    -0.74700
O493        O  0.64711840  0.02435961  0.97262151    -0.74800
O494        O  0.66572070  0.96635543  0.96022779    -0.74800
O495        O  0.68061357  0.97763003  0.92889300    -0.74800
O496        O  0.66093429  0.03588468  0.94089357    -0.74700
O497        O  0.69810038  0.01263742  0.94922052    -0.74700
O498        O  0.64370885  0.00059764  0.92043027    -0.74800
Ni499      Ni  0.65607945  0.99505251  0.96759540     1.25400
Ni500      Ni  0.67138452  0.00714759  0.93373729     1.25400
C501        C  0.62749419  0.99353195  0.93163387     0.87500
C502        C  0.70007304  0.00845673  0.96967651     0.87400
C503        C  0.65018404  0.03949914  0.95850398     0.87400
C504        C  0.67608564  0.96236102  0.94251673     0.87600
O505        O  0.94418704  0.15018822  0.04442225    -0.74700
O506        O  0.97316936  0.20482960  0.03560163    -0.74700
O507        O  0.95231745  0.18559131  0.06955787    -0.74800
O508        O  0.96514890  0.16896058  0.01084423    -0.74800
O509        O  0.93383297  0.18381630  0.99932477    -0.74800
O510        O  0.92111971  0.20101260  0.05854161    -0.74700
O511        O  0.94178817  0.21972071  0.02434376    -0.74700
O512        O  0.91267030  0.16537404  0.03380140    -0.74800
Ni513      Ni  0.95983565  0.17692525  0.04049603     1.25400
Ni514      Ni  0.92623424  0.19303296  0.02855823     1.25400
C515        C  0.92366049  0.14884430  0.04050464     0.87500
C516        C  0.96217406  0.22135707  0.02875509     0.87400
C517        C  0.93464082  0.19596345  0.07382860     0.87400
C518        C  0.95146686  0.17307031  0.99551154     0.87600
O519        O  0.87677066  0.99606620  0.06636626    -0.74700
O520        O  0.82228592  0.00320738  0.03599860    -0.74700
O521        O  0.85621909  0.02929607  0.04683136    -0.74800
O522        O  0.84336322  0.96928551  0.05539666    -0.74800
O523        O  0.82627388  0.97689333  0.08664077    -0.74800
O524        O  0.84056815  0.03778364  0.07863771    -0.74700
O525        O  0.80614766  0.01170027  0.06751006    -0.74700
O526        O  0.86017733  0.00306960  0.09808083    -0.74800
Ni527      Ni  0.85013034  0.99914890  0.05002807     1.25400
Ni528      Ni  0.83259506  0.00766129  0.08383742     1.25400
C529        C  0.87745924  0.99870483  0.08715365     0.87500
C530        C  0.80520443  0.00875492  0.04678688     0.87400
C531        C  0.85164006  0.04322975  0.06166515     0.87400
C532        C  0.83303054  0.96300636  0.07243950     0.87600
O533        O  0.03460985  0.97388556  0.13249732    -0.74700
O534        O  0.02494325  0.00291434  0.18735105    -0.74700
O535        O  0.06001441  0.98423959  0.16733631    -0.74800
O536        O  0.00014938  0.99271228  0.15196239    -0.74800
O537        O  0.99150620  0.96064395  0.16701914    -0.74800
O538        O  0.05196809  0.95244947  0.18327433    -0.74700
O539        O  0.01647853  0.97084559  0.20248873    -0.74700
O540        O  0.02692739  0.94185442  0.14820881    -0.74800
Ni541      Ni  0.03025189  0.98959129  0.15932878     1.25400
Ni542      Ni  0.02140586  0.95533392  0.17586223     1.25400
C543        C  0.03207719  0.95309579  0.13131461     0.87500
C544        C  0.01910349  0.99155421  0.20401544     0.87400
C545        C  0.06603882  0.96690087  0.17748430     0.87400
C546        C  0.98607063  0.97786455  0.15621463     0.87600
O547        O  0.05698935  0.90240118  0.97852838    -0.74700
O548        O  0.02528948  0.84879437  0.98452856    -0.74700
O549        O  0.03484501  0.88339931  0.01088306    -0.74800
O550        O  0.04761005  0.86831531  0.95167916    -0.74800
O551        O  0.07779079  0.85089457  0.96255525    -0.74800
O552        O  0.06539342  0.86675341  0.02204417    -0.74700
O553        O  0.05568676  0.83204429  0.99579009    -0.74700
O554        O  0.08766947  0.88542399  0.98881450    -0.74800
Ni555      Ni  0.04007899  0.87623257  0.98098813     1.25400
Ni556      Ni  0.07271016  0.85812214  0.99269096     1.25400
C557        C  0.07739805  0.90284677  0.98325044     0.87500
C558        C  0.03530139  0.83148939  0.99096749     0.87400
C559        C  0.04850574  0.87853900  0.02602395     0.87400
C560        C  0.06472279  0.85706684  0.94730054     0.87600
O561        O  0.12884002  0.05870582  0.96650504    -0.74700
O562        O  0.18136586  0.04844234  0.99892124    -0.74700
O563        O  0.16379769  0.08341869  0.97758047    -0.74800
O564        O  0.14600794  0.02420268  0.98747891    -0.74800
O565        O  0.16295193  0.01392351  0.95688658    -0.74800
O566        O  0.18109627  0.07307856  0.94722631    -0.74700
O567        O  0.19825652  0.03820631  0.96831296    -0.74700
O568        O  0.14582823  0.04898849  0.93574023    -0.74800
Ni569      Ni  0.15448710  0.05407363  0.98375385     1.25400
Ni570      Ni  0.17266814  0.04317461  0.95096960     1.25400
C571        C  0.12862576  0.05530445  0.94585287     0.87500
C572        C  0.19849116  0.04165548  0.98896720     0.87400
C573        C  0.17520560  0.08803724  0.96062833     0.87400
C574        C  0.15097749  0.00946611  0.97347831     0.87600
O575        O  0.97712210  0.08313840  0.88814985    -0.74700
O576        O  0.98845360  0.05218793  0.83511260    -0.74700
O577        O  0.01171917  0.06227973  0.87161161    -0.74800
O578        O  0.95362515  0.07322046  0.85200534    -0.74800
O579        O  0.96448111  0.10412515  0.83597610    -0.74800
O580        O  0.02303900  0.09323290  0.85592250    -0.74700
O581        O  0.99949122  0.08308237  0.81922963    -0.74700
O582        O  0.98766612  0.11436794  0.87247827    -0.74800
Ni583      Ni  0.98236615  0.06660502  0.86219525     1.25400
Ni584      Ni  0.99412588  0.09981129  0.84529043     1.25400
C585        C  0.98072116  0.10373635  0.88917912     0.87500
C586        C  0.99535714  0.06254271  0.81824831     0.87400
C587        C  0.02674016  0.07628658  0.86776198     0.87400
C588        C  0.94937989  0.09046192  0.84086548     0.87600
O589        O  0.03774977  0.08057529  0.38200104    -0.74700
O590        O  0.02469821  0.05344054  0.32719329    -0.74700
O591        O  0.06032606  0.07331169  0.34462301    -0.74800
O592        O  0.00271599  0.06086253  0.36506619    -0.74800
O593        O  0.99071149  0.09269881  0.35175690    -0.74800
O594        O  0.04886900  0.10531720  0.33138183    -0.74700
O595        O  0.01321868  0.08540814  0.31384937    -0.74700
O596        O  0.02632946  0.11266110  0.36874838    -0.74800
Ni597      Ni  0.03178051  0.06589452  0.35506553     1.25400
Ni598      Ni  0.01933516  0.10014120  0.34086933     1.25400
C599        C  0.03378057  0.10098458  0.38451648     0.87500
C600        C  0.01701652  0.06494457  0.31138290     0.87400
C601        C  0.06430246  0.09153235  0.33505385     0.87400
C602        C  0.98751421  0.07507840  0.36272517     0.87600
O603        O  0.89084741  0.05558837  0.46591943    -0.74700
O604        O  0.83986186  0.04725152  0.50120576    -0.74700
O605        O  0.87460826  0.02217858  0.48943938    -0.74800
O606        O  0.85634080  0.08096790  0.47742675    -0.74800
O607        O  0.83786322  0.06920977  0.44828657    -0.74800
O608        O  0.85612706  0.01048648  0.46021503    -0.74700
O609        O  0.82161014  0.03561554  0.47187302    -0.74700
O610        O  0.87240900  0.04437500  0.43647346    -0.74800
Ni611      Ni  0.86602623  0.05191104  0.48457528     1.25400
Ni612      Ni  0.84634244  0.03948355  0.45319254     1.25400
C613        C  0.89002692  0.05131563  0.44542994     0.87500
C614        C  0.82223761  0.04021889  0.49229822     0.87400
C615        C  0.86869761  0.00674544  0.47658762     0.87400
C616        C  0.84415539  0.08480633  0.46075897     0.87600
O617        O  0.95917526  0.89664202  0.48783274    -0.74700
O618        O  0.98879364  0.84217935  0.49528645    -0.74700
O619        O  0.96980965  0.86319704  0.46101175    -0.74800
O620        O  0.97790012  0.87608371  0.52153610    -0.74800
O621        O  0.94634530  0.85974146  0.52966986    -0.74800
O622        O  0.93820764  0.84673079  0.46857729    -0.74700
O623        O  0.95717772  0.82571362  0.50281939    -0.74700
O624        O  0.92734051  0.88059305  0.49538213    -0.74800
Ni625      Ni  0.97504435  0.86997830  0.49111890     1.25400
Ni626      Ni  0.94112287  0.85253795  0.49938711     1.25400
C627        C  0.93851590  0.89776365  0.49091300     0.87500
C628        C  0.97795590  0.82495715  0.50021081     0.87400
C629        C  0.95259976  0.85308326  0.45471261     0.87400
C630        C  0.96313358  0.87091658  0.53540874     0.87600
O631        O  0.05941360  0.14675388  0.54232540    -0.74700
O632        O  0.03155844  0.20151914  0.53169623    -0.74700
O633        O  0.04029658  0.16540361  0.50755299    -0.74800
O634        O  0.05093064  0.18240521  0.56669858    -0.74800
O635        O  0.08272355  0.19720616  0.55679240    -0.74800
O636        O  0.07209383  0.18013977  0.49745266    -0.74700
O637        O  0.06340098  0.21620890  0.52183712    -0.74700
O638        O  0.09147407  0.16125651  0.53274420    -0.74800
Ni639      Ni  0.04438374  0.17359386  0.53739278     1.25400
Ni640      Ni  0.07856529  0.18924379  0.52680298     1.25400
C641        C  0.08002468  0.14499617  0.53933250     0.87500
C642        C  0.04282963  0.21796154  0.52528519     0.87400
C643        C  0.05467240  0.16943886  0.49291494     0.87400
C644        C  0.06869378  0.19236226  0.57155736     0.87600
O645        O  0.13143699  0.98983155  0.57643151    -0.74700
O646        O  0.18484576  0.00370661  0.54727955    -0.74700
O647        O  0.16894879  0.96818969  0.56767552    -0.74800
O648        O  0.14722829  0.02527397  0.55611045    -0.74800
O649        O  0.16194670  0.03726474  0.58730415    -0.74800
O650        O  0.18294243  0.97942155  0.59941259    -0.74700
O651        O  0.19942484  0.01476415  0.57881298    -0.74700
O652        O  0.14534211  0.00151501  0.60805150    -0.74800
Ni653      Ni  0.15764327  0.99635895  0.56078300     1.25400
Ni654      Ni  0.17291665  0.00871118  0.59455796     1.25400
C655        C  0.12941095  0.99356090  0.59693464     0.87500
C656        C  0.20113103  0.01101359  0.55824707     0.87400
C657        C  0.17962464  0.96433406  0.58529186     0.87400
C658        C  0.15077228  0.04058830  0.56985479     0.87600
O659        O  0.97355382  0.96197216  0.64471860    -0.74700
O660        O  0.98245201  0.99314508  0.69823746    -0.74700
O661        O  0.00722436  0.98338605  0.66264890    -0.74800
O662        O  0.94827280  0.97136004  0.67983659    -0.74800
O663        O  0.95932425  0.94046939  0.69583203    -0.74800
O664        O  0.01856159  0.95280347  0.67916021    -0.74700
O665        O  0.99310075  0.96219937  0.71442697    -0.74700
O666        O  0.98456646  0.93098619  0.66065790    -0.74800
Ni667      Ni  0.97746191  0.97858093  0.67087649     1.25400
Ni668      Ni  0.98929073  0.94553165  0.68814557     1.25400
C669        C  0.97800372  0.94152382  0.64371922     0.87500
C670        C  0.98912056  0.98277426  0.71523715     0.87400
C671        C  0.02244907  0.96982008  0.66752354     0.87400
C672        C  0.94399502  0.95376174  0.69042055     0.87600
O673        O  0.72729016  0.64931101  0.81361051    -0.74700
O674        O  0.74125274  0.59517709  0.78581325    -0.74700
O675        O  0.70409239  0.61397108  0.80120494    -0.74800
O676        O  0.76389877  0.63117379  0.79840694    -0.74800
O677        O  0.77035845  0.61594956  0.83100885    -0.74800
O678        O  0.71015475  0.59820813  0.83359175    -0.74700
O679        O  0.74752423  0.57988706  0.81836282    -0.74700
O680        O  0.73300343  0.63389153  0.84624668    -0.74800
Ni681      Ni  0.73392422  0.62281611  0.79856061     1.25400
Ni682      Ni  0.74048728  0.60634263  0.83344901     1.25400
C683        C  0.72824374  0.65060355  0.83448814     0.87500
C684        C  0.74662042  0.57856165  0.79747546     0.87400
C685        C  0.69710239  0.60373695  0.81807568     0.87400
C686        C  0.77665797  0.62738288  0.81459411     0.87600
O687        O  0.88225642  0.72404811  0.80159853    -0.74700
O688        O  0.93481624  0.75288739  0.78334078    -0.74700
O689        O  0.89671240  0.74055678  0.76384693    -0.74800
O690        O  0.91975847  0.73646001  0.82157927    -0.74800
O691        O  0.93482631  0.70422023  0.81368458    -0.74800
O692        O  0.91137780  0.70823090  0.75544834    -0.74700
O693        O  0.94947481  0.72049780  0.77530980    -0.74700
O694        O  0.89724679  0.69168821  0.79389204    -0.74800
Ni695      Ni  0.90795916  0.73966742  0.79286738     1.25400
Ni696      Ni  0.92384032  0.70503729  0.78425072     1.25400
C697        C  0.88095194  0.70316435  0.80025549     0.87500
C698        C  0.95101088  0.74133427  0.77671029     0.87400
C699        C  0.89933927  0.72472222  0.75047727     0.87400
C700        C  0.93073346  0.71957108  0.82734692     0.87600
O701        O  0.62561651  0.83090419  0.72821040    -0.74700
O702        O  0.57674663  0.79395087  0.74030957    -0.74700
O703        O  0.58983279  0.81861695  0.70598920    -0.74800
O704        O  0.61286339  0.80644892  0.76288626    -0.74800
O705        O  0.59354526  0.83413655  0.77663499    -0.74800
O706        O  0.57233363  0.84778721  0.71905753    -0.74700
O707        O  0.55794832  0.82266536  0.75255854    -0.74700
O708        O  0.60803253  0.85927878  0.74293395    -0.74800
Ni709      Ni  0.60187791  0.81143551  0.73394944     1.25400
Ni710      Ni  0.58228997  0.84198401  0.74833160     1.25400
C711        C  0.62485653  0.85113262  0.73346778     0.87500
C712        C  0.55906985  0.80227859  0.74781790     0.87400
C713        C  0.57776324  0.83549994  0.70298816     0.87400
C714        C  0.60709271  0.81831281  0.77913746     0.87600
O715        O  0.70206354  0.80360332  0.88419540    -0.74700
O716        O  0.73595886  0.79787363  0.93652961    -0.74700
O717        O  0.72525774  0.77138217  0.90238454    -0.74800
O718        O  0.71210069  0.83035983  0.91791667    -0.74800
O719        O  0.68248827  0.81895441  0.93578215    -0.74800
O720        O  0.69575110  0.75991056  0.92048189    -0.74700
O721        O  0.70639197  0.78667440  0.95456346    -0.74700
O722        O  0.67220122  0.79246754  0.90188658    -0.74800
Ni723      Ni  0.71993975  0.80121421  0.90973010     1.25400
Ni724      Ni  0.68819178  0.78907350  0.92890522     1.25400
C725        C  0.68174055  0.79863072  0.88425366     0.87500
C726        C  0.72679141  0.79159744  0.95428917     0.87400
C727        C  0.71205990  0.75613170  0.90795888     0.87400
C728        C  0.69487721  0.83442632  0.92909278     0.87600
O729        O  0.79673288  0.73543975  0.65055701    -0.74700
O730        O  0.76378974  0.74088493  0.59741312    -0.74700
O731        O  0.78569633  0.70784785  0.61782904    -0.74800
O732        O  0.77519362  0.76808196  0.63055672    -0.74800
O733        O  0.80572242  0.77733052  0.61293515    -0.74800
O734        O  0.81569365  0.71703526  0.59930423    -0.74700
O735        O  0.79412003  0.75035074  0.57963103    -0.74700
O736        O  0.82726469  0.74376224  0.63243447    -0.74800
Ni737      Ni  0.77922597  0.73772069  0.62464141     1.25400
Ni738      Ni  0.81175014  0.74746454  0.60538915     1.25400
C739        C  0.81739870  0.73875697  0.65020971     0.87500
C740        C  0.77352147  0.74655717  0.57973469     0.87400
C741        C  0.80257756  0.70247995  0.60668042     0.87400
C742        C  0.78912622  0.78251384  0.62459168     0.87600
O743        O  0.78377752  0.89117487  0.71503218    -0.74700
O744        O  0.77969289  0.94407417  0.74770020    -0.74700
O745        O  0.75239787  0.91057267  0.73877477    -0.74800
O746        O  0.81149410  0.92476619  0.72374431    -0.74800
O747        O  0.79974288  0.94307061  0.69441743    -0.74800
O748        O  0.74070868  0.92683838  0.70819560    -0.74700
O749        O  0.76728443  0.96150923  0.71808695    -0.74700
O750        O  0.77329787  0.90869367  0.68469132    -0.74800
Ni751      Ni  0.78231427  0.91706779  0.73234484     1.25400
Ni752      Ni  0.76983111  0.93571535  0.70028503     1.25400
C753        C  0.77877824  0.89108192  0.69468987     0.87500
C754        C  0.77274993  0.96150765  0.73836552     0.87400
C755        C  0.73691546  0.91573913  0.72560389     0.87400
C756        C  0.81539480  0.93646216  0.70675780     0.87600
O757        O  0.20676215  0.80856128  0.63990277    -0.74700
O758        O  0.24016240  0.79573623  0.58871951    -0.74700
O759        O  0.22087049  0.83205483  0.60521654    -0.74800
O760        O  0.22570047  0.77251776  0.62365342    -0.74800
O761        O  0.19508725  0.76439985  0.60549547    -0.74800
O762        O  0.19037526  0.82381920  0.58690704    -0.74700
O763        O  0.20953236  0.78776623  0.57058764    -0.74700
O764        O  0.17591742  0.80090603  0.62196176    -0.74800
Ni765      Ni  0.22449190  0.80250317  0.61495769     1.25400
Ni766      Ni  0.19163348  0.79391320  0.59558412     1.25400
C767        C  0.18592214  0.80661580  0.63950419     0.87500
C768        C  0.23038017  0.78989497  0.57112605     0.87400
C769        C  0.20469979  0.83772016  0.59312131     0.87400
C770        C  0.21100463  0.75876320  0.61792810     0.87600
O771        O  0.22379078  0.64279202  0.70118649    -0.74700
O772        O  0.23590160  0.58681700  0.72594981    -0.74700
O773        O  0.25876293  0.62407108  0.71948775    -0.74800
O774        O  0.20056539  0.60560983  0.70744014    -0.74800
O775        O  0.21103095  0.59308131  0.67486214    -0.74800
O776        O  0.26957310  0.61181058  0.68689716    -0.74700
O777        O  0.24635841  0.57433050  0.69334698    -0.74700
O778        O  0.23394745  0.63060405  0.66834328    -0.74800
Ni779      Ni  0.22936042  0.61519377  0.71466145     1.25400
Ni780      Ni  0.24062939  0.60200773  0.67966551     1.25400
C781        C  0.22735531  0.64607232  0.68083578     0.87500
C782        C  0.24280751  0.57127133  0.71377301     0.87400
C783        C  0.27359547  0.62160215  0.70497886     0.87400
C784        C  0.19620620  0.59609275  0.68931494     0.87600
O785        O  0.30007742  0.74190153  0.88106134    -0.74700
O786        O  0.27254802  0.75038912  0.93675739    -0.74700
O787        O  0.28078686  0.77567076  0.90126672    -0.74800
O788        O  0.29176437  0.71611034  0.91605721    -0.74800
O789        O  0.32371096  0.72537152  0.93104423    -0.74800
O790        O  0.31281502  0.78539362  0.91582815    -0.74700
O791        O  0.30471834  0.75975950  0.95115534    -0.74700
O792        O  0.33219209  0.75090943  0.89585889    -0.74800
Ni793      Ni  0.28512490  0.74566882  0.90835047     1.25400
Ni794      Ni  0.31949419  0.75571544  0.92401819     1.25400
C795        C  0.32070100  0.74515539  0.87931555     0.87500
C796        C  0.28417370  0.75642207  0.95316088     0.87400
C797        C  0.29516243  0.79022087  0.90552314     0.87400
C798        C  0.30957813  0.71083173  0.92575423     0.87600
O799        O  0.37537366  0.71733328  0.72447838    -0.74700
O800        O  0.42558876  0.75279621  0.73489050    -0.74700
O801        O  0.41093716  0.72869513  0.70060823    -0.74800
O802        O  0.38978577  0.74089246  0.75822495    -0.74800
O803        O  0.40811596  0.71200168  0.77109383    -0.74800
O804        O  0.42881602  0.69955391  0.71339467    -0.74700
O805        O  0.44375378  0.72365725  0.74732543    -0.74700
O806        O  0.39328584  0.68802123  0.73705996    -0.74800
Ni807      Ni  0.39987218  0.73599503  0.72905042     1.25400
Ni808      Ni  0.41918352  0.70478903  0.74267434     1.25400
C809        C  0.37589637  0.69704352  0.72957581     0.87500
C810        C  0.44297458  0.74411932  0.74279313     0.87400
C811        C  0.42317324  0.71195145  0.69743014     0.87400
C812        C  0.39496042  0.72805784  0.77399368     0.87600
O813        O  0.12704899  0.83358643  0.79146592    -0.74700
O814        O  0.07312689  0.80493177  0.77804829    -0.74700
O815        O  0.11049675  0.81428366  0.75584934    -0.74800
O816        O  0.09023088  0.82444348  0.81403987    -0.74800
O817        O  0.07570084  0.85619383  0.80342931    -0.74800
O818        O  0.09602443  0.84598571  0.74488105    -0.74700
O819        O  0.05869487  0.83672351  0.76743559    -0.74700
O820        O  0.11264505  0.86552072  0.78107987    -0.74800
Ni821      Ni  0.10063091  0.81814747  0.78520570     1.25400
Ni822      Ni  0.08519038  0.85221493  0.77378262     1.25400
C823        C  0.12878860  0.85421795  0.78828266     0.87500
C824        C  0.05688737  0.81611811  0.77082898     0.87400
C825        C  0.10735991  0.82876717  0.74101080     0.87400
C826        C  0.08003215  0.84219413  0.81848731     0.87600
O827        O  0.28114292  0.89959257  0.81580598    -0.74700
O828        O  0.27756072  0.95466743  0.78603347    -0.74700
O829        O  0.30960784  0.93223355  0.80730332    -0.74800
O830        O  0.24953137  0.92121858  0.79485003    -0.74800
O831        O  0.23972198  0.93709349  0.82617772    -0.74800
O832        O  0.30019457  0.94882633  0.83832864    -0.74700
O833        O  0.26776871  0.97064484  0.81724165    -0.74700
O834        O  0.27225900  0.91579263  0.84724641    -0.74800
Ni835      Ni  0.27980259  0.92648094  0.79984457     1.25400
Ni836      Ni  0.26963129  0.94377840  0.83332268     1.25400
C837        C  0.27706571  0.89860798  0.83632704     0.87500
C838        C  0.27217370  0.97182817  0.79678303     0.87400
C839        C  0.31488841  0.94196070  0.82506120     0.87400
C840        C  0.23494100  0.92609418  0.80899799     0.87600
O841        O  0.12887746  0.71605450  0.28755819    -0.74700
O842        O  0.07264057  0.74273752  0.27792275    -0.74700
O843        O  0.09457226  0.72678656  0.31299705    -0.74800
O844        O  0.10789214  0.73230961  0.25256779    -0.74800
O845        O  0.09386099  0.69933139  0.24583830    -0.74800
O846        O  0.07923291  0.69427853  0.30694587    -0.74700
O847        O  0.05842001  0.70993034  0.27109457    -0.74700
O848        O  0.11399614  0.68323039  0.28207227    -0.74800
Ni849      Ni  0.10140157  0.73067642  0.28290309     1.25400
Ni850      Ni  0.08578686  0.69554670  0.27617600     1.25400
C851        C  0.13056707  0.69516016  0.28664328     0.87500
C852        C  0.05608267  0.73059961  0.27351186     0.87400
C853        C  0.08507118  0.70957620  0.32006289     0.87400
C854        C  0.10423621  0.71643698  0.23949887     0.87600
O855        O  0.28418895  0.64523936  0.32055259    -0.74700
O856        O  0.27537484  0.58994878  0.29211300    -0.74700
O857        O  0.25062142  0.62629464  0.30005303    -0.74800
O858        O  0.30935720  0.60943833  0.31267893    -0.74800
O859        O  0.29871372  0.59436511  0.34412938    -0.74800
O860        O  0.23954624  0.61192678  0.33171404    -0.74700
O861        O  0.26443803  0.57547140  0.32371430    -0.74700
O862        O  0.27407671  0.63054969  0.35239835    -0.74800
Ni863      Ni  0.28026970  0.61815750  0.30522031     1.25400
Ni864      Ni  0.26876422  0.60251382  0.33910650     1.25400
C865        C  0.28020803  0.64708011  0.34104471     0.87500
C866        C  0.26887454  0.57342632  0.30332460     0.87400
C867        C  0.23561231  0.62282297  0.31416939     0.87400
C868        C  0.31379664  0.59910039  0.33037789     0.87600
O869        O  0.19550847  0.73702192  0.13086784    -0.74700
O870        O  0.22335136  0.75207741  0.07697570    -0.74700
O871        O  0.21441309  0.77321196  0.11493526    -0.74800
O872        O  0.20448898  0.71572416  0.09325312    -0.74800
O873        O  0.17250093  0.72624394  0.07917147    -0.74800
O874        O  0.18231965  0.78417501  0.10140395    -0.74700
O875        O  0.19130630  0.76286731  0.06325208    -0.74700
O876        O  0.16324608  0.74719385  0.11707743    -0.74800
Ni877      Ni  0.21058091  0.74416257  0.10443168     1.25400
Ni878      Ni  0.17619641  0.75556943  0.08970843     1.25400
C879        C  0.17483934  0.73971626  0.13290332     0.87500
C880        C  0.21186057  0.75947505  0.06103421     0.87400
C881        C  0.19981055  0.78800200  0.11237555     0.87400
C882        C  0.18690000  0.71139281  0.08275032     0.87600
O883        O  0.31052125  0.80753168  0.38430056    -0.74700
O884        O  0.27615123  0.79788357  0.43547205    -0.74700
O885        O  0.29856849  0.83238377  0.41918401    -0.74800
O886        O  0.28842477  0.77327195  0.40062696    -0.74800
O887        O  0.31828115  0.76247021  0.41863125    -0.74800
O888        O  0.32816372  0.82147329  0.43753340    -0.74700
O889        O  0.30581122  0.78692574  0.45368201    -0.74700
O890        O  0.34064913  0.79728961  0.40226118    -0.74800
Ni891      Ni  0.29237636  0.80317702  0.40929932     1.25400
Ni892      Ni  0.32430478  0.79165046  0.42867735     1.25400
C893        C  0.33107562  0.80360270  0.38464518     0.87500
C894        C  0.28522728  0.79098517  0.45308407     0.87400
C895        C  0.31493928  0.83666176  0.43161009     0.87400
C896        C  0.30187428  0.75816263  0.40627257     0.87600
O897        O  0.38368995  0.82835192  0.22729007    -0.74700
O898        O  0.43782983  0.79999237  0.24160242    -0.74700
O899        O  0.40040487  0.80993227  0.26389466    -0.74800
O900        O  0.42060690  0.81865292  0.20524327    -0.74800
O901        O  0.43437259  0.85096144  0.21490785    -0.74800
O902        O  0.41510290  0.84171529  0.27392168    -0.74700
O903        O  0.45212142  0.83221235  0.25073461    -0.74700
O904        O  0.39739899  0.86046885  0.23758211    -0.74800
Ni905      Ni  0.41016338  0.81306948  0.23425757     1.25400
Ni906      Ni  0.42526592  0.84746110  0.24471015     1.25400
C907        C  0.38157396  0.84904015  0.22990416     0.87500
C908        C  0.45421528  0.81156456  0.24765669     0.87400
C909        C  0.40397567  0.82455361  0.27847060     0.87400
C910        C  0.43066392  0.83636422  0.20035065     0.87600
O911        O  0.22216387  0.88850357  0.21138536    -0.74700
O912        O  0.22998762  0.94102508  0.24462565    -0.74700
O913        O  0.19538929  0.92117443  0.22509182    -0.74800
O914        O  0.25636262  0.90807056  0.23101067    -0.74800
O915        O  0.26328033  0.92591906  0.19989357    -0.74800
O916        O  0.20216387  0.94012378  0.19468910    -0.74700
O917        O  0.23721701  0.95920958  0.21385183    -0.74700
O918        O  0.22803620  0.90711461  0.18051246    -0.74800
Ni919      Ni  0.22571588  0.91408043  0.22913335     1.25400
Ni920      Ni  0.23294214  0.93378240  0.19615856     1.25400
C921        C  0.22389223  0.88918004  0.19050135     0.87500
C922        C  0.23486440  0.95883531  0.23466815     0.87400
C923        C  0.18864148  0.93276418  0.20892946     0.87400
C924        C  0.26973005  0.91440937  0.21624727     0.87600
O925        O  0.63323649  0.21701083  0.78640774    -0.74700
O926        O  0.57684093  0.24354746  0.78015260    -0.74700
O927        O  0.59996010  0.22639630  0.81384257    -0.74800
O928        O  0.61040868  0.23439011  0.75283643    -0.74800
O929        O  0.59704411  0.20118916  0.74601713    -0.74800
O930        O  0.58420050  0.19423081  0.80718599    -0.74700
O931        O  0.56240809  0.21102129  0.77242546    -0.74700
O932        O  0.61834344  0.18417754  0.78100225    -0.74800
Ni933      Ni  0.60558062  0.23150457  0.78352961     1.25400
Ni934      Ni  0.58992375  0.19649811  0.77636152     1.25400
C935        C  0.63502090  0.19617787  0.78494958     0.87500
C936        C  0.56026367  0.23164402  0.77540545     0.87400
C937        C  0.59036066  0.20908419  0.82063594     0.87400
C938        C  0.60621016  0.21889033  0.73944675     0.87600
O939        O  0.72778495  0.40352753  0.70541924    -0.74700
O940        O  0.74130107  0.45767555  0.73315843    -0.74700
O941        O  0.70582087  0.44093985  0.71254312    -0.74800
O942        O  0.76312926  0.41996758  0.72576841    -0.74800
O943        O  0.77546495  0.43377546  0.69431507    -0.74800
O944        O  0.71766617  0.45405891  0.68065819    -0.74700
O945        O  0.75286002  0.47131718  0.70137805    -0.74700
O946        O  0.73991703  0.41653506  0.67359247    -0.74800
Ni947      Ni  0.73411944  0.43012654  0.72035736     1.25400
Ni948      Ni  0.74697050  0.44442522  0.68635065     1.25400
C949        C  0.73142993  0.40107113  0.68496039     0.87500
C950        C  0.74907590  0.47351240  0.72187559     0.87400
C951        C  0.70212715  0.45047544  0.69422153     0.87400
C952        C  0.77865612  0.42316759  0.71214087     0.87600
O953        O  0.68916190  0.24552931  0.63422226    -0.74700
O954        O  0.73049236  0.25585207  0.58828805    -0.74700
O955        O  0.71438072  0.27954198  0.62212993    -0.74800
O956        O  0.70526346  0.22177953  0.60082883    -0.74800
O957        O  0.67763597  0.23357847  0.58009407    -0.74800
O958        O  0.68855118  0.29239236  0.59966393    -0.74700
O959        O  0.70338285  0.26694178  0.56648959    -0.74700
O960        O  0.66250517  0.25917881  0.61321405    -0.74800
Ni961      Ni  0.71079585  0.25027147  0.61208827     1.25400
Ni962      Ni  0.68204201  0.26346675  0.58906283     1.25400
C963        C  0.66914607  0.25100848  0.63135063     0.87500
C964        C  0.72366045  0.26266888  0.56962930     0.87400
C965        C  0.70300373  0.29543248  0.61457535     0.87400
C966        C  0.68978167  0.21797102  0.58726287     0.87600
O967        O  0.79089932  0.14943393  0.81733974    -0.74700
O968        O  0.78354229  0.09781253  0.78314861    -0.74700
O969        O  0.75792263  0.13219214  0.79449299    -0.74800
O970        O  0.81682014  0.11538473  0.80628384    -0.74800
O971        O  0.80590481  0.09707578  0.83587719    -0.74800
O972        O  0.74666892  0.11417218  0.82416907    -0.74700
O973        O  0.77249316  0.07964801  0.81276391    -0.74700
O974        O  0.78032735  0.13149454  0.84732536    -0.74800
Ni975      Ni  0.78769023  0.12426625  0.79926030     1.25400
Ni976      Ni  0.77592994  0.10489521  0.83109916     1.25400
C977        C  0.78653382  0.14912013  0.83780450     0.87500
C978        C  0.77699639  0.08013450  0.79228404     0.87400
C979        C  0.74272065  0.12661110  0.80771321     0.87400
C980        C  0.82113782  0.10355648  0.82305271     0.87600
O981        O  0.88105100  0.32726184  0.73083565    -0.74700
O982        O  0.93189299  0.29209856  0.73776825    -0.74700
O983        O  0.89858696  0.30453883  0.76382704    -0.74800
O984        O  0.91424988  0.31540056  0.70434860    -0.74800
O985        O  0.93343435  0.34457062  0.71475218    -0.74800
O986        O  0.91735011  0.33396034  0.77431708    -0.74700
O987        O  0.95106002  0.32125860  0.74823554    -0.74700
O988        O  0.89974037  0.35696824  0.74074153    -0.74800
Ni989      Ni  0.90587351  0.30877823  0.73379252     1.25400
Ni990      Ni  0.92614903  0.34024313  0.74487749     1.25400
C991        C  0.88180994  0.34771736  0.73503120     0.87500
C992        C  0.94980470  0.30069699  0.74428283     0.87400
C993        C  0.90474013  0.31784510  0.77876497     0.87400
C994        C  0.92623026  0.33193661  0.69969110     0.87600
O995        O  0.81611349  0.30233483  0.88925352    -0.74700
O996        O  0.78813031  0.29290994  0.94439655    -0.74700
O997        O  0.80860018  0.32713919  0.92522142    -0.74800
O998        O  0.79563136  0.26859661  0.90810797    -0.74800
O999        O  0.82728201  0.25707026  0.92227316    -0.74800
O1000       O  0.84009625  0.31593393  0.93987721    -0.74700
O1001       O  0.81980378  0.28151895  0.95852760    -0.74700
O1002       O  0.84793772  0.29164972  0.90375367    -0.74800
Ni1003     Ni  0.80097628  0.29816562  0.91629834     1.25400
Ni1004     Ni  0.83490490  0.28612864  0.93164140     1.25400
C1005       C  0.83656277  0.29822564  0.88742295     0.87500
C1006       C  0.79942911  0.28579679  0.96061541     0.87400
C1007       C  0.82644918  0.33125130  0.93538902     0.87400
C1008       C  0.80950816  0.25333479  0.91176344     0.87600
O1009       O  0.28583443  0.15275599  0.70820147    -0.74700
O1010       O  0.28138417  0.09591931  0.73414941    -0.74700
O1011       O  0.31428530  0.11980700  0.71638155    -0.74800
O1012       O  0.25334276  0.12918334  0.72576811    -0.74800
O1013       O  0.24582938  0.11556775  0.69282245    -0.74800
O1014       O  0.30697153  0.10448504  0.68411165    -0.74700
O1015       O  0.27346028  0.08154003  0.70161685    -0.74700
O1016       O  0.27956890  0.13825287  0.67532191    -0.74800
Ni1017     Ni  0.28399160  0.12484386  0.72229220     1.25400
Ni1018     Ni  0.27617302  0.10939926  0.68730052     1.25400
C1019       C  0.28337449  0.15486325  0.68750096     0.87500
C1020       C  0.27662800  0.07935466  0.72224404     0.87400
C1021       C  0.32070867  0.11066238  0.69869651     0.87400
C1022       C  0.23958911  0.12471720  0.71061259     0.87600
O1023       O  0.13103970  0.20783442  0.73028956    -0.74700
O1024       O  0.08209495  0.24583222  0.73749673    -0.74700
O1025       O  0.11551749  0.23218683  0.76304265    -0.74800
O1026       O  0.09767689  0.22107806  0.70437000    -0.74800
O1027       O  0.07780245  0.19272294  0.71569997    -0.74800
O1028       O  0.09511397  0.20435131  0.77486458    -0.74700
O1029       O  0.06181149  0.21767389  0.74861231    -0.74700
O1030       O  0.11118490  0.17950517  0.74198319    -0.74800
Ni1031     Ni  0.10722049  0.22773274  0.73335551     1.25400
Ni1032     Ni  0.08569903  0.19754228  0.74568256     1.25400
C1033       C  0.12933014  0.18764340  0.73546592     0.87500
C1034       C  0.06388041  0.23808991  0.74424669     0.87400
C1035       C  0.10866359  0.21988328  0.77853148     0.87400
C1036       C  0.08498223  0.20495757  0.70025861     0.87600
O1037       O  0.31066597  0.31613127  0.64010267    -0.74700
O1038       O  0.27643516  0.30307354  0.58923745    -0.74700
O1039       O  0.28885632  0.28036853  0.62569854    -0.74800
O1040       O  0.29840943  0.33848547  0.60435859    -0.74800
O1041       O  0.32851373  0.32711012  0.58723980    -0.74800
O1042       O  0.31842114  0.26890830  0.60775500    -0.74700
O1043       O  0.30651493  0.29216959  0.57186088    -0.74700
O1044       O  0.34048711  0.30405501  0.62295989    -0.74800
Ni1045     Ni  0.29244527  0.30983377  0.61543178     1.25400
Ni1046     Ni  0.32450959  0.29760525  0.59683598     1.25400
C1047       C  0.33129633  0.31252934  0.63973151     0.87500
C1048       C  0.28593361  0.29600489  0.57194219     0.87400
C1049       C  0.30223868  0.26510772  0.62046341     0.87400
C1050       C  0.31535201  0.34244066  0.59273881     0.87600
O1051       O  0.37898444  0.32033495  0.79005921    -0.74700
O1052       O  0.43460637  0.29199164  0.78369700    -0.74700
O1053       O  0.41149562  0.30828207  0.81785054    -0.74800
O1054       O  0.40178791  0.30378237  0.75632092    -0.74800
O1055       O  0.41614408  0.33697792  0.75124527    -0.74800
O1056       O  0.42825987  0.34020121  0.81254780    -0.74700
O1057       O  0.44993909  0.32449135  0.77761518    -0.74700
O1058       O  0.39509211  0.35284791  0.78633160    -0.74800
Ni1059     Ni  0.40618782  0.30490213  0.78716877     1.25400
Ni1060     Ni  0.42299983  0.33974392  0.78173800     1.25400
C1061       C  0.37793490  0.34127578  0.78917159     0.87500
C1062       C  0.45150386  0.30369905  0.77964189     0.87400
C1063       C  0.42154575  0.32501552  0.82536066     0.87400
C1064       C  0.40650994  0.31992758  0.74388888     0.87600
O1065       O  0.22230182  0.39417262  0.80681561    -0.74700
O1066       O  0.23593646  0.44740943  0.77633498    -0.74700
O1067       O  0.25842090  0.41111936  0.78872070    -0.74800
O1068       O  0.19949564  0.43010569  0.79415117    -0.74800
O1069       O  0.20750191  0.44628664  0.82580207    -0.74800
O1070       O  0.26697454  0.42694434  0.82046104    -0.74700
O1071       O  0.24421649  0.46309826  0.80815628    -0.74700
O1072       O  0.23011883  0.41034050  0.83854855    -0.74800
Ni1073     Ni  0.22876029  0.42018640  0.79036070     1.25400
Ni1074     Ni  0.23752271  0.43727344  0.82436289     1.25400
C1075       C  0.22416633  0.39346281  0.82771630     0.87500
C1076       C  0.24204567  0.46416397  0.78735073     0.87400
C1077       C  0.27222716  0.41528400  0.80386979     0.87400
C1078       C  0.19367344  0.44123039  0.81084386     0.87600
O1079       O  0.19703854  0.24108728  0.88893462    -0.74700
O1080       O  0.22488837  0.25606593  0.94272340    -0.74700
O1081       O  0.20530202  0.21976501  0.92687039    -0.74800
O1082       O  0.21630958  0.27708147  0.90431384    -0.74800
O1083       O  0.18469568  0.28877248  0.91823050    -0.74800
O1084       O  0.17319475  0.23092293  0.93994545    -0.74700
O1085       O  0.19286007  0.26679450  0.95641378    -0.74700
O1086       O  0.16499766  0.25254975  0.90206074    -0.74800
Ni1087     Ni  0.21203895  0.24812140  0.91532784     1.25400
Ni1088     Ni  0.17780823  0.26023319  0.92968036     1.25400
C1089       C  0.17656922  0.24469737  0.88648647     0.87500
C1090       C  0.21340097  0.26326815  0.95865692     0.87400
C1091       C  0.18734442  0.21575601  0.93687088     0.87400
C1092       C  0.20200507  0.29214978  0.90691244     0.87600
O1093       O  0.30978382  0.23888301  0.13351069    -0.74700
O1094       O  0.27936272  0.25108856  0.08004248    -0.74700
O1095       O  0.30015963  0.21538062  0.09704015    -0.74800
O1096       O  0.28934520  0.27388660  0.11705475    -0.74800
O1097       O  0.32035534  0.28509207  0.10149967    -0.74800
O1098       O  0.33119278  0.22650871  0.08160568    -0.74700
O1099       O  0.31056813  0.26204783  0.06483248    -0.74700
O1100       O  0.34101729  0.24972362  0.11816704    -0.74800
Ni1101     Ni  0.29350782  0.24437849  0.10733986     1.25400
Ni1102     Ni  0.32686446  0.25620357  0.09092429     1.25400
C1103       C  0.33027935  0.24296073  0.13481841     0.97100
C1104       C  0.28994989  0.25864493  0.06359621     0.87400
C1105       C  0.31763105  0.21120589  0.08624600     0.87400
C1106       C  0.30346742  0.28887805  0.11328830     0.87600
O1107       O  0.29109994  0.39400445  0.21148612    -0.74700
O1108       O  0.27833728  0.44804064  0.24124527    -0.74700
O1109       O  0.25531192  0.41171082  0.22919407    -0.74800
O1110       O  0.31448294  0.42957668  0.22371007    -0.74800
O1111       O  0.30688796  0.44559623  0.19179299    -0.74800
O1112       O  0.24700754  0.42721412  0.19715271    -0.74700
O1113       O  0.27043668  0.46349216  0.20915054    -0.74700
O1114       O  0.28358250  0.40993234  0.17950334    -0.74800
Ni1115     Ni  0.28505236  0.42037504  0.22757802     1.25400
Ni1116     Ni  0.27665129  0.43721060  0.19329878     1.25400
C1117       C  0.28909085  0.39299804  0.19059603     0.87500
C1118       C  0.27279609  0.46489709  0.22993738     0.87400
C1119       C  0.24177035  0.41533608  0.21364942     0.87400
C1120       C  0.32060009  0.44025486  0.20680572     0.87600
O1121       O  0.22418978  0.15000509  0.30697533    -0.74700
O1122       O  0.22969812  0.09682316  0.27454935    -0.74700
O1123       O  0.19700253  0.11625107  0.29749594    -0.74800
O1124       O  0.25630866  0.13113699  0.28427378    -0.74800
O1125       O  0.26762870  0.11382841  0.31441128    -0.74800
O1126       O  0.20810064  0.09827851  0.32730862    -0.74700
O1127       O  0.24099964  0.07950103  0.30464493    -0.74700
O1128       O  0.23474038  0.13251199  0.33729333    -0.74800
Ni1129     Ni  0.22636377  0.12407137  0.28972690     1.25400
Ni1130     Ni  0.23825308  0.10537580  0.32198695     1.25400
C1131       C  0.22911192  0.15011027  0.32734495     0.87500
C1132       C  0.23621035  0.07935756  0.28424299     0.87400
C1133       C  0.19274124  0.10481058  0.31454074     0.87400
C1134       C  0.27159965  0.12571805  0.29756592     0.87600
O1135       O  0.38081340  0.21709279  0.28808834    -0.74700
O1136       O  0.43504956  0.24781025  0.28234828    -0.74700
O1137       O  0.39966655  0.24034965  0.25624656    -0.74800
O1138       O  0.41585854  0.22423580  0.31448894    -0.74800
O1139       O  0.43142780  0.19377719  0.30194076    -0.74800
O1140       O  0.41612606  0.21038947  0.24348323    -0.74700
O1141       O  0.45118394  0.21736710  0.27044446    -0.74700
O1142       O  0.39649369  0.18671202  0.27540941    -0.74800
Ni1143     Ni  0.40735924  0.23346855  0.28575097     1.25400
Ni1144     Ni  0.42440094  0.20100133  0.27232189     1.25400
C1145       C  0.37957991  0.19700140  0.28231816     0.87500
C1146       C  0.45217940  0.23756561  0.27595545     0.87400
C1147       C  0.40454090  0.22760362  0.24041007     0.87400
C1148       C  0.42634054  0.20637435  0.31784757     0.87600
O1149       O  0.14115921  0.31413957  0.22719051    -0.74700
O1150       O  0.08817405  0.28194537  0.23580062    -0.74700
O1151       O  0.10746998  0.30235679  0.20135359    -0.74800
O1152       O  0.12257204  0.29389591  0.26131763    -0.74800
O1153       O  0.10537508  0.32479909  0.27025131    -0.74800
O1154       O  0.08969588  0.33305820  0.20978528    -0.74700
O1155       O  0.07092080  0.31285043  0.24449297    -0.74700
O1156       O  0.12368832  0.34513357  0.23528652    -0.74800
Ni1157     Ni  0.11534443  0.29694527  0.23112716     1.25400
Ni1158     Ni  0.09672062  0.33002837  0.24031421     1.25400
C1159       C  0.14112443  0.33492449  0.22980151     0.87500
C1160       C  0.07073133  0.29213558  0.24140640     0.87400
C1161       C  0.09661179  0.31932196  0.19554904     0.87400
C1162       C  0.11734886  0.30834214  0.27549212     0.87600
O1163       O  0.21299793  0.30292421  0.38170002    -0.74700
O1164       O  0.24625910  0.29459030  0.43420193    -0.74700
O1165       O  0.23533082  0.26955565  0.39904051    -0.74800
O1166       O  0.22364194  0.32844278  0.41645214    -0.74800
O1167       O  0.19364558  0.31731684  0.43389219    -0.74800
O1168       O  0.20531848  0.25836253  0.41645691    -0.74700
O1169       O  0.21604933  0.28373192  0.45144368    -0.74700
O1170       O  0.18272842  0.29215963  0.39893439    -0.74800
Ni1171     Ni  0.23066473  0.29930058  0.40731083     1.25400
Ni1172     Ni  0.19838838  0.28748357  0.42583184     1.25400
C1173       C  0.19256551  0.29832336  0.38150282     0.87500
C1174       C  0.23651149  0.28815826  0.45160106     0.87400
C1175       C  0.22177685  0.25445124  0.40412734     0.87400
C1176       C  0.20672784  0.33258600  0.42806885     0.87600
O1177       O  0.71187138  0.29445126  0.14155518    -0.74700
O1178       O  0.73902766  0.28904254  0.08536550    -0.74700
O1179       O  0.72023239  0.32211600  0.10772531    -0.74800
O1180       O  0.73095144  0.26202585  0.11950038    -0.74800
O1181       O  0.69864403  0.25299731  0.10517232    -0.74800
O1182       O  0.68821463  0.31391988  0.09235695    -0.74700
O1183       O  0.70681122  0.28022693  0.07072840    -0.74700
O1184       O  0.67959476  0.28654730  0.12649620    -0.74800
Ni1185     Ni  0.72665717  0.29225224  0.11398404     1.25400
Ni1186     Ni  0.69216093  0.28312160  0.09809792     1.25400
C1187       C  0.69130927  0.29080297  0.14333039     0.87500
C1188       C  0.72731160  0.28383934  0.06875638     0.87400
C1189       C  0.70266047  0.32806524  0.09799631     0.87400
C1190       C  0.71628401  0.24775587  0.11534670     0.87600
O1191       O  0.64371453  0.30942132  0.30012752    -0.74700
O1192       O  0.59102668  0.27579134  0.29338055    -0.74700
O1193       O  0.62617209  0.28564912  0.26755913    -0.74800
O1194       O  0.60915987  0.29982481  0.32619336    -0.74800
O1195       O  0.59176818  0.32936790  0.31366854    -0.74800
O1196       O  0.60842520  0.31514767  0.25528661    -0.74700
O1197       O  0.57377442  0.30552745  0.28117411    -0.74700
O1198       O  0.62617337  0.33908579  0.28801319    -0.74800
Ni1199     Ni  0.61807003  0.29153960  0.29725759     1.25400
Ni1200     Ni  0.59939115  0.32327008  0.28408415     1.25400
C1201       C  0.64360130  0.32979461  0.29508239     0.87500
C1202       C  0.57359449  0.28520674  0.28632488     0.87400
C1203       C  0.62063029  0.29847512  0.25189223     0.87400
C1204       C  0.59793844  0.31720379  0.32960595     0.87600
O1205       O  0.72763000  0.14472782  0.21120103    -0.74700
O1206       O  0.73387961  0.09399805  0.24741994    -0.74700
O1207       O  0.75927900  0.12886603  0.23671899    -0.74800
O1208       O  0.70170299  0.11051329  0.22166439    -0.74800
O1209       O  0.71468377  0.09158350  0.19336950    -0.74800
O1210       O  0.77282272  0.11018422  0.20847245    -0.74700
O1211       O  0.74691158  0.07533781  0.21896902    -0.74700
O1212       O  0.74043361  0.12602793  0.18260937    -0.74800
Ni1213     Ni  0.73012593  0.12007243  0.23029453     1.25400
Ni1214     Ni  0.74422007  0.10004976  0.19986616     1.25400
C1215       C  0.73343531  0.14381391  0.19111287     0.87500
C1216       C  0.74121368  0.07622035  0.23909285     0.87400
C1217       C  0.77534661  0.12340256  0.22455637     0.87400
C1218       C  0.69858550  0.09831444  0.20495882     0.87600
O1219       O  0.87802007  0.22317641  0.23466739    -0.74700
O1220       O  0.93203840  0.25444914  0.23863664    -0.74700
O1221       O  0.91142122  0.23147998  0.20687029    -0.74800
O1222       O  0.89861907  0.24624322  0.26633225    -0.74800
O1223       O  0.91435517  0.21520566  0.27749101    -0.74800
O1224       O  0.92893515  0.20149194  0.21809444    -0.74700
O1225       O  0.94872357  0.22422215  0.25047929    -0.74700
O1226       O  0.89492543  0.19249858  0.24492837    -0.74800
Ni1227     Ni  0.90445056  0.23992067  0.23623706     1.25400
Ni1228     Ni  0.92237592  0.20729616  0.24818813     1.25400
C1229       C  0.87755279  0.20265087  0.23898157     0.87500
C1230       C  0.94933474  0.24450045  0.24512013     0.87400
C1231       C  0.92234240  0.21409742  0.20263986     0.87400
C1232       C  0.90388399  0.23289010  0.28162287     0.87600
O1233       O  0.81954411  0.23618262  0.39246124    -0.74700
O1234       O  0.78163354  0.24993595  0.44002450    -0.74700
O1235       O  0.79502010  0.27120054  0.40347729    -0.74800
O1236       O  0.80645400  0.21502205  0.42856856    -0.74800
O1237       O  0.83539373  0.22847817  0.44616960    -0.74800
O1238       O  0.82211610  0.28554016  0.42326507    -0.74700
O1239       O  0.80994798  0.26246392  0.45927496    -0.74700
O1240       O  0.84753687  0.25155840  0.41013102    -0.74800
Ni1241     Ni  0.79962906  0.24264530  0.41553844     1.25400
Ni1242     Ni  0.82976103  0.25754106  0.43541491     1.25400
C1243       C  0.83970731  0.24162720  0.39340901     0.87500
C1244       C  0.78950744  0.25811919  0.45762838     0.87400
C1245       C  0.80672505  0.28759639  0.40914348     0.87400
C1246       C  0.82318938  0.21226767  0.44091268     0.87600
O1247       O  0.79178444  0.39264265  0.31205487    -0.74700
O1248       O  0.78156047  0.44602972  0.28074024    -0.74700
O1249       O  0.81615795  0.42804933  0.30187957    -0.74800
O1250       O  0.75745520  0.40978365  0.29120583    -0.74800
O1251       O  0.74651261  0.42607191  0.32192720    -0.74800
O1252       O  0.80567062  0.44436794  0.33270062    -0.74700
O1253       O  0.77105754  0.46231222  0.31154206    -0.74700
O1254       O  0.78133837  0.40870652  0.34303602    -0.74800
Ni1255     Ni  0.78707031  0.41869634  0.29532667     1.25400
Ni1256     Ni  0.77570583  0.43603379  0.32836438     1.25400
C1257       C  0.78794335  0.39175376  0.33262788     0.87500
C1258       C  0.77521173  0.46318004  0.29099976     0.87400
C1259       C  0.82072510  0.43883451  0.31921995     0.87400
C1260       C  0.74266197  0.41370839  0.30544212     0.87600
O1261       O  0.79956725  0.80579533  0.14610515    -0.74700
O1262       O  0.76816773  0.79779501  0.09244574    -0.74700
O1263       O  0.78140557  0.77172383  0.12620301    -0.74800
O1264       O  0.78652231  0.83244954  0.11311444    -0.74800
O1265       O  0.81776367  0.82616326  0.09550200    -0.74800
O1266       O  0.81275609  0.76484535  0.10889654    -0.74700
O1267       O  0.79943290  0.79133498  0.07496226    -0.74700
O1268       O  0.83103782  0.79967904  0.12877249    -0.74800
Ni1269     Ni  0.78276840  0.80218923  0.11991988     1.25400
Ni1270     Ni  0.81633415  0.79526988  0.10127866     1.25400
C1271       C  0.82038163  0.80339361  0.14641741     0.87500
C1272       C  0.77856009  0.79340800  0.07478601     0.87400
C1273       C  0.79690023  0.75863514  0.12111848     0.87400
C1274       C  0.80315526  0.83946166  0.10256882     0.87600
O1275       O  0.71385719  0.89483920  0.32765739    -0.74700
O1276       O  0.72926362  0.94176287  0.28915027    -0.74700
O1277       O  0.75000786  0.90502901  0.30446067    -0.74800
O1278       O  0.69342072  0.93087818  0.31270438    -0.74800
O1279       O  0.70609960  0.94904639  0.34163084    -0.74800
O1280       O  0.76325980  0.92506811  0.33188059    -0.74700
O1281       O  0.74109820  0.96108705  0.31767013    -0.74700
O1282       O  0.72812497  0.91313106  0.35584247    -0.74800
Ni1283     Ni  0.72126693  0.91748279  0.30741848     1.25400
Ni1284     Ni  0.73515246  0.93777796  0.33773346     1.25400
C1285       C  0.71852502  0.89626734  0.34801713     0.87500
C1286       C  0.73690487  0.95953960  0.29718795     0.87400
C1287       C  0.76586507  0.91051044  0.31705822     0.87400
C1288       C  0.69030012  0.94386143  0.32883620     0.87600
O1289       O  0.87291009  0.81354686  0.30284282    -0.74700
O1290       O  0.92835911  0.78642338  0.28970294    -0.74700
O1291       O  0.90918947  0.80284938  0.32629394    -0.74800
O1292       O  0.89142664  0.79696211  0.26664229    -0.74800
O1293       O  0.90581841  0.82955827  0.25886876    -0.74800
O1294       O  0.92342069  0.83558902  0.31905410    -0.74700
O1295       O  0.94225551  0.81931746  0.28252997    -0.74700
O1296       O  0.88732844  0.84619740  0.29548766    -0.74800
Ni1297     Ni  0.90005144  0.79873981  0.29662698     1.25400
Ni1298     Ni  0.91525270  0.83378459  0.28868383     1.25400
C1299       C  0.87098247  0.83439381  0.30108084     0.87500
C1300       C  0.94460116  0.79857651  0.28428417     0.87400
C1301       C  0.91891452  0.82025111  0.33267247     0.87400
C1302       C  0.89498730  0.81254767  0.25311651     0.87600
O1303       O  0.79575882  0.65588028  0.22225652    -0.74700
O1304       O  0.78456791  0.60299179  0.25448552    -0.74700
O1305       O  0.82049216  0.62169969  0.23605270    -0.74800
O1306       O  0.76036340  0.63799151  0.24059465    -0.74800
O1307       O  0.75291653  0.62053333  0.20946073    -0.74800
O1308       O  0.81333240  0.60412342  0.20494570    -0.74700
O1309       O  0.77749351  0.58575055  0.22319900    -0.74700
O1310       O  0.78877347  0.63841723  0.19104146    -0.74800
Ni1311     Ni  0.79055657  0.63014808  0.23951249     1.25400
Ni1312     Ni  0.78286464  0.61151026  0.20610125     1.25400
C1313       C  0.79360016  0.65596536  0.20137328     0.87500
C1314       C  0.77940602  0.58551533  0.24407707     0.87400
C1315       C  0.82693732  0.61058286  0.21955291     0.87400
C1316       C  0.74699062  0.63288321  0.22531288     0.87600
O1317       O  0.70490217  0.73883233  0.38664863    -0.74700
O1318       O  0.73503046  0.74288874  0.44135806    -0.74700
O1319       O  0.71373003  0.71057899  0.41982540    -0.74800
O1320       O  0.72618133  0.77076629  0.40827136    -0.74800
O1321       O  0.69444131  0.78034562  0.42346995    -0.74800
O1322       O  0.68303483  0.72025363  0.43685231    -0.74700
O1323       O  0.70414746  0.75319083  0.45767804    -0.74700
O1324       O  0.67347519  0.74723344  0.40310424    -0.74800
Ni1325     Ni  0.72106332  0.74039368  0.41348586     1.25400
Ni1326     Ni  0.68768594  0.75061544  0.43093072     1.25400
C1327       C  0.68427537  0.74245382  0.38582468     0.87500
C1328       C  0.72465986  0.74884139  0.45852690     0.87400
C1329       C  0.69626201  0.70545216  0.43016528     0.87400
C1330       C  0.71210020  0.78536446  0.41341095     0.87600
O1331       O  0.58677588  0.69983724  0.21393033    -0.74700
O1332       O  0.60134638  0.71112392  0.27375110    -0.74700
O1333       O  0.56582609  0.71887661  0.24791403    -0.74800
O1334       O  0.62192999  0.69215289  0.23960383    -0.74800
O1335       O  0.63604764  0.72453035  0.23045280    -0.74800
O1336       O  0.57969647  0.75110327  0.23811896    -0.74700
O1337       O  0.61534055  0.74338074  0.26403421    -0.74700
O1338       O  0.60110902  0.73184745  0.20402142    -0.74800
Ni1339     Ni  0.59340869  0.70439767  0.24414284     1.25400
Ni1340     Ni  0.60842056  0.73892599  0.23379436     1.25400
C1341       C  0.59193313  0.71367962  0.19905380     0.87500
C1342       C  0.61161482  0.72871924  0.27856293     0.87400
C1343       C  0.56342101  0.73939124  0.24427484     0.87400
C1344       C  0.63827314  0.70400208  0.23405856     0.87600
C1345       C  0.62081360  0.73141117  0.30071479    -0.05500
C1346       C  0.61037537  0.72252164  0.31912978    -0.05400
C1347       C  0.62030857  0.72358170  0.33976934    -0.23600
C1348       C  0.64115453  0.73289621  0.34214090     0.18600
C1349       C  0.65189508  0.74147912  0.32354952     0.15800
C1350       C  0.64147097  0.74110874  0.30311814    -0.18600
C1351       C  0.67312843  0.74981625  0.32556098    -0.20500
C1352       C  0.68368822  0.74966278  0.34581027    -0.13000
C1353       C  0.67301383  0.74171680  0.36449843     0.03600
C1354       C  0.65164233  0.73346141  0.36263559    -0.25200
H1355       H  0.59456762  0.71471959  0.31752041     0.08700
H1356       H  0.61190508  0.71672037  0.35376993     0.12300
H1357       H  0.64988640  0.74746145  0.28886204     0.12300
H1358       H  0.68164652  0.75627574  0.31143596     0.12000
H1359       H  0.70010992  0.75618275  0.34697374     0.12600
H1360       H  0.64343443  0.72708214  0.37699171     0.14500
C1361       C  0.72492585  0.64263799  0.22543513    -0.05500
C1362       C  0.70699114  0.63172408  0.21619049    -0.05400
C1363       C  0.68630073  0.64154786  0.21598894    -0.23600
C1364       C  0.68340727  0.66266755  0.22449109     0.18600
C1365       C  0.70158929  0.67405033  0.23308759     0.15800
C1366       C  0.72209590  0.66383710  0.23382378    -0.18600
C1367       C  0.69898883  0.69549688  0.24073715    -0.20500
C1368       C  0.67844365  0.70546177  0.24026868    -0.13000
C1369       C  0.66012086  0.69398453  0.23259666     0.03600
C1370       C  0.66268636  0.67260248  0.22461709    -0.25200
H1371       H  0.70894263  0.61550774  0.20937242     0.08700
H1372       H  0.67260296  0.63268851  0.20909756     0.12300
H1373       H  0.73600822  0.67260998  0.24044458     0.12300
H1374       H  0.71280602  0.70450765  0.24719199     0.12000
H1375       H  0.67671778  0.72191473  0.24658883     0.12600
H1376       H  0.64859336  0.66378474  0.21847721     0.14500
C1377       C  0.78728984  0.89946246  0.31491528    -0.05500
C1378       C  0.80675115  0.91092372  0.31899234    -0.05400
C1379       C  0.82702022  0.90043339  0.31726705    -0.23600
C1380       C  0.82815238  0.87813825  0.31196924     0.18600
C1381       C  0.80862875  0.86627731  0.30853467     0.15800
C1382       C  0.78834868  0.87708911  0.30969084    -0.18600
C1383       C  0.80974889  0.84381136  0.30401435    -0.20500
C1384       C  0.83001885  0.83329130  0.30238007    -0.13000
C1385       C  0.84955503  0.84509474  0.30490315     0.03600
C1386       C  0.84845692  0.86753784  0.30991961    -0.25200
H1387       H  0.80627591  0.92810997  0.32321965     0.08700
H1388       H  0.84180868  0.90974690  0.32013853     0.12300
H1389       H  0.77336658  0.86801563  0.30698496     0.12300
H1390       H  0.79494712  0.83440675  0.30154503     0.12000
H1391       H  0.83041959  0.81603233  0.29846125     0.12600
H1392       H  0.86341103  0.87678342  0.31213867     0.14500
C1393       C  0.71590024  0.80804726  0.40646043    -0.05500
C1394       C  0.73707547  0.81683112  0.40694153    -0.05400
C1395       C  0.74132906  0.83719358  0.39748661    -0.23600
C1396       C  0.72461235  0.84863465  0.38666626     0.18600
C1397       C  0.70316374  0.83995863  0.38632024     0.15800
C1398       C  0.69883417  0.81999799  0.39676611    -0.18600
C1399       C  0.68671334  0.85074256  0.37445480    -0.20500
C1400       C  0.69169444  0.86940598  0.36226251    -0.13000
C1401       C  0.71293969  0.87798279  0.36246454     0.03600
C1402       C  0.72921675  0.86796076  0.37517914    -0.25200
H1403       H  0.75040880  0.80770850  0.41428268     0.08700
H1404       H  0.75786062  0.84352837  0.39780432     0.12300
H1405       H  0.68256284  0.81301239  0.39597994     0.12300
H1406       H  0.67024034  0.84426974  0.37391004     0.12000
H1407       H  0.67902176  0.87706663  0.35247175     0.12600
H1408       H  0.74570794  0.87445305  0.37501706     0.14500
C1409       C  0.79748614  0.73712235  0.13196329    -0.05500
C1410       C  0.80295920  0.71780969  0.12091093    -0.05400
C1411       C  0.80351535  0.69780842  0.13224284    -0.23600
C1412       C  0.79929738  0.69706909  0.15486542     0.18600
C1413       C  0.79469156  0.71669888  0.16610258     0.15800
C1414       C  0.79348620  0.73642241  0.15455143    -0.18600
C1415       C  0.79132402  0.71636566  0.18874930    -0.20500
C1416       C  0.79191760  0.69664320  0.20020763    -0.13000
C1417       C  0.79555130  0.67682703  0.18921281     0.03600
C1418       C  0.79944584  0.67715348  0.16647956    -0.25200
H1419       H  0.80642079  0.71816377  0.10354842     0.08700
H1420       H  0.80731477  0.68297222  0.12337017     0.12300
H1421       H  0.78987247  0.75143739  0.16326369     0.12300
H1422       H  0.78799249  0.73134937  0.19758025     0.12000
H1423       H  0.78875636  0.69683621  0.21763344     0.12600
H1424       H  0.80242516  0.66197338  0.15785936     0.14500
C1425       C  0.83192630  0.80380323  0.16765769    -0.05500
C1426       C  0.82116906  0.79604007  0.18640214    -0.05400
C1427       C  0.83189503  0.79527648  0.20654239    -0.23600
C1428       C  0.85345075  0.80275215  0.20843223     0.18600
C1429       C  0.86439886  0.81096364  0.18979742     0.15800
C1430       C  0.85369048  0.81104354  0.16937969    -0.18600
C1431       C  0.88569823  0.81925875  0.19205932    -0.20500
C1432       C  0.89584933  0.81975905  0.21263899    -0.13000
C1433       C  0.88514696  0.81129680  0.23108677     0.03600
C1434       C  0.86404707  0.80255331  0.22878325    -0.25200
H1435       H  0.80451537  0.79010273  0.18538097     0.08700
H1436       H  0.82325817  0.78901052  0.22068106     0.12300
H1437       H  0.86206897  0.81710270  0.15499087     0.12300
H1438       H  0.89432458  0.82572927  0.17801446     0.12000
H1439       H  0.91208628  0.82664477  0.21414768     0.12600
H1440       H  0.85552819  0.79636751  0.24305084     0.14500
C1441       C  0.77613926  0.56458772  0.25609778    -0.05500
C1442       C  0.77329260  0.56428529  0.27892065    -0.05400
C1443       C  0.77124597  0.54442304  0.29024177    -0.23600
C1444       C  0.77233551  0.52443677  0.27900403     0.18600
C1445       C  0.77499083  0.52457554  0.25605151     0.15800
C1446       C  0.77664192  0.54456334  0.24476645    -0.18600
C1447       C  0.77648683  0.50469878  0.24477549    -0.20500
C1448       C  0.77591803  0.48484869  0.25613503    -0.13000
C1449       C  0.77360636  0.48436193  0.27902063     0.03600
C1450       C  0.77143333  0.50433928  0.29033315    -0.25200
H1451       H  0.77274501  0.57942971  0.28805579     0.08700
H1452       H  0.76919983  0.54469302  0.30783736     0.12300
H1453       H  0.77896864  0.54447158  0.22719412     0.12300
H1454       H  0.77854566  0.50449750  0.22717800     0.12000
H1455       H  0.77764079  0.46981846  0.24695849     0.12600
H1456       H  0.76981783  0.50430230  0.30798340     0.14500
C1457       C  0.80282722  0.30895416  0.39861882    -0.05500
C1458       C  0.80466798  0.32847665  0.41051388    -0.05400
C1459       C  0.80140327  0.34868785  0.40018957    -0.23600
C1460       C  0.79689668  0.34966465  0.37767502     0.18600
C1461       C  0.79538029  0.33002927  0.36557983     0.15800
C1462       C  0.79793772  0.30983941  0.37619844    -0.18600
C1463       C  0.79168284  0.33089106  0.34298227    -0.20500
C1464       C  0.78957404  0.35101314  0.33238536    -0.13000
C1465       C  0.79070516  0.37066664  0.34421551     0.03600
C1466       C  0.79420161  0.36987962  0.36696290    -0.25200
H1467       H  0.80843734  0.32805856  0.42782997     0.08700
H1468       H  0.80271891  0.36354178  0.40972937     0.12300
H1469       H  0.79682525  0.29480204  0.36688477     0.12300
H1470       H  0.79058521  0.31600101  0.33346338     0.12000
H1471       H  0.78672555  0.35118247  0.31489182     0.12600
H1472       H  0.79524072  0.38494871  0.37621372     0.14500
C1473       C  0.89666502  0.23745419  0.30411138    -0.05500
C1474       C  0.89751364  0.25876123  0.31257524    -0.05400
C1475       C  0.88838293  0.26346755  0.33300706    -0.23600
C1476       C  0.87750400  0.24709477  0.34484721     0.18600
C1477       C  0.87667019  0.22557748  0.33637432     0.15800
C1478       C  0.88676144  0.22079600  0.31636746    -0.18600
C1479       C  0.86480540  0.20943862  0.34747878    -0.20500
C1480       C  0.85317999  0.21473171  0.36634873    -0.13000
C1481       C  0.85385757  0.23600684  0.37485617     0.03600
C1482       C  0.86651361  0.25204799  0.36441227    -0.25200
H1483       H  0.90502975  0.27180162  0.30323456     0.08700
H1484       H  0.88909431  0.28006211  0.33914256     0.12300
H1485       H  0.88569642  0.20442562  0.30965459     0.12300
H1486       H  0.86387029  0.19292911  0.34114263     0.12000
H1487       H  0.84342310  0.20223440  0.37424839     0.12600
H1488       H  0.86671886  0.26858278  0.37078253     0.14500
C1489       C  0.73990174  0.97891646  0.28291909    -0.05500
C1490       C  0.73786292  0.97718746  0.26007267    -0.05400
C1491       C  0.73873323  0.99584118  0.24681888    -0.23600
C1492       C  0.74132274  0.01659329  0.25620572     0.18600
C1493       C  0.74351956  0.01849972  0.27913726     0.15800
C1494       C  0.74310005  0.99967504  0.29227643    -0.18600
C1495       C  0.74547113  0.03926425  0.28862796    -0.20500
C1496       C  0.74483780  0.05802425  0.27556542    -0.13000
C1497       C  0.74270740  0.05633159  0.25276079     0.03600
C1498       C  0.74123343  0.03550660  0.24313468    -0.25200
H1499       H  0.73529745  0.96142585  0.25244970     0.08700
H1500       H  0.73693386  0.99407657  0.22927290     0.12300
H1501       H  0.74444070  0.00131918  0.30988123     0.12300
H1502       H  0.74710771  0.04101639  0.30618986     0.12000
H1503       H  0.74605886  0.07389563  0.28330024     0.12600
H1504       H  0.73931886  0.03405439  0.22556014     0.14500
C1505       C  0.79649359  0.13418539  0.22821868    -0.05500
C1506       C  0.81615027  0.12239881  0.22896140    -0.05400
C1507       C  0.83602142  0.13335980  0.23211015    -0.23600
C1508       C  0.83647320  0.15628715  0.23383008     0.18600
C1509       C  0.81667904  0.16818471  0.23265489     0.15800
C1510       C  0.79684988  0.15703560  0.23026207    -0.18600
C1511       C  0.81702400  0.19107023  0.23354786    -0.20500
C1512       C  0.83683746  0.20216756  0.23553898    -0.13000
C1513       C  0.85666148  0.19060105  0.23701931     0.03600
C1514       C  0.85633750  0.16756889  0.23631572    -0.25200
H1515       H  0.81607790  0.10476321  0.22734557     0.08700
H1516       H  0.85103188  0.12396702  0.23287443     0.12300
H1517       H  0.78166824  0.16618456  0.22933642     0.12300
H1518       H  0.80198179  0.20040157  0.23250735     0.12000
H1519       H  0.83661238  0.21987167  0.23606044     0.12600
H1520       H  0.87152420  0.15846031  0.23723845     0.14500
C1521       C  0.66394821  0.34266787  0.29698146    -0.05500
C1522       C  0.68426715  0.33247819  0.29376109    -0.05400
C1523       C  0.70354450  0.34467499  0.29419079    -0.23600
C1524       C  0.70286959  0.36721241  0.29832262     0.18600
C1525       C  0.68261582  0.37755228  0.30241441     0.15800
C1526       C  0.66321636  0.36525988  0.30137032    -0.18600
C1527       C  0.68220534  0.39995281  0.30757128    -0.20500
C1528       C  0.70169512  0.41196964  0.30860057    -0.13000
C1529       C  0.72172387  0.40191046  0.30375461     0.03600
C1530       C  0.72216884  0.37952504  0.29862004    -0.25200
H1531       H  0.68519132  0.31512979  0.29031734     0.08700
H1532       H  0.71898157  0.33648467  0.29125857     0.12300
H1533       H  0.64760821  0.37318518  0.30415794     0.12300
H1534       H  0.66686163  0.40810301  0.31101624     0.12000
H1535       H  0.70112805  0.42912672  0.31292778     0.12600
H1536       H  0.73769650  0.37153373  0.29550323     0.14500
C1537       C  0.73318873  0.16396641  0.17811395    -0.05500
C1538       C  0.74336137  0.18258351  0.18670774    -0.05400
C1539       C  0.74343434  0.20210031  0.17498924    -0.23600
C1540       C  0.73269823  0.20345305  0.15478334     0.18600
C1541       C  0.72220118  0.18486121  0.14596182     0.15800
C1542       C  0.72296863  0.16494601  0.15751510    -0.18600
C1543       C  0.71058331  0.18682124  0.12617316    -0.20500
C1544       C  0.70882865  0.20718488  0.11567405    -0.13000
C1545       C  0.71932817  0.22560167  0.12444162     0.03600
C1546       C  0.73162486  0.22341467  0.14374327    -0.25200
H1547       H  0.75144293  0.18193692  0.20249082     0.08700
H1548       H  0.75145119  0.21626419  0.18196140     0.12300
H1549       H  0.71499805  0.15054482  0.15097826     0.12300
H1550       H  0.70232855  0.17280341  0.11920434     0.12000
H1551       H  0.69917001  0.20859078  0.10086703     0.12600
H1552       H  0.73943076  0.23761514  0.15091746     0.14500
C1553       C  0.68101675  0.29067866  0.16513043    -0.05500
C1554       C  0.69338706  0.28518415  0.18373869    -0.05400
C1555       C  0.68351690  0.28393688  0.20428841    -0.23600
C1556       C  0.66120094  0.28862486  0.20662990     0.18600
C1557       C  0.64864407  0.29433673  0.18801446     0.15800
C1558       C  0.65855544  0.29497250  0.16734980    -0.18600
C1559       C  0.62652069  0.29984385  0.19047203    -0.20500
C1560       C  0.61713453  0.30049608  0.21127531    -0.13000
C1561       C  0.62951501  0.29493880  0.22983058     0.03600
C1562       C  0.65140730  0.28846726  0.22735754    -0.25200
H1563       H  0.71064313  0.28145762  0.18232452     0.08700
H1564       H  0.69339468  0.27957947  0.21838402     0.12300
H1565       H  0.64889698  0.29923078  0.15305980     0.12300
H1566       H  0.61667240  0.30431683  0.17639366     0.12000
H1567       H  0.60027075  0.30564900  0.21293606     0.12600
H1568       H  0.66115336  0.28458920  0.24170165     0.14500
C1569       C  0.97029238  0.25657783  0.24594942    -0.05500
C1570       C  0.97042878  0.27950835  0.24417325    -0.05400
C1571       C  0.99011703  0.29102257  0.24378438    -0.23600
C1572       C  0.01008362  0.27981372  0.24489524     0.18600
C1573       C  0.01021029  0.25677267  0.24679948     0.15800
C1574       C  0.99032097  0.24531514  0.24755168    -0.18600
C1575       C  0.03023818  0.24557783  0.24745190    -0.20500
C1576       C  0.04993316  0.25706982  0.24586283    -0.13000
C1577       C  0.04996697  0.27998113  0.24392383     0.03600
C1578       C  0.02991044  0.29125628  0.24370499    -0.25200
H1579       H  0.95526151  0.28859537  0.24296466     0.08700
H1580       H  0.98972255  0.30868166  0.24229004     0.12300
H1581       H  0.99046755  0.22762538  0.24876154     0.12300
H1582       H  0.03066881  0.22791628  0.24888101     0.12000
H1583       H  0.06515973  0.24801271  0.24613335     0.12600
H1584       H  0.02968316  0.30891146  0.24203013     0.14500
C1585       C  0.18069016  0.29893315  0.36051014    -0.05500
C1586       C  0.19157458  0.29211056  0.34152454    -0.05400
C1587       C  0.18072149  0.29154562  0.32149238    -0.23600
C1588       C  0.15891073  0.29834841  0.31996819     0.18600
C1589       C  0.14777904  0.30564605  0.33884547     0.15800
C1590       C  0.15864145  0.30545516  0.35919263    -0.18600
C1591       C  0.12618813  0.31335050  0.33684500    -0.20500
C1592       C  0.11596365  0.31418236  0.31627828    -0.13000
C1593       C  0.12692586  0.30660463  0.29760880     0.03600
C1594       C  0.14828371  0.29843342  0.29969102    -0.25200
H1595       H  0.20845430  0.28674726  0.34227755     0.08700
H1596       H  0.18947118  0.28600147  0.30713786     0.12300
H1597       H  0.15019677  0.31079900  0.37380951     0.12300
H1598       H  0.11740635  0.31914554  0.35107235     0.12000
H1599       H  0.09952629  0.32066626  0.31494768     0.12600
H1600       H  0.15703038  0.29298243  0.28527657     0.14500
C1601       C  0.55283166  0.27271177  0.28430101    -0.05500
C1602       C  0.55221962  0.25004508  0.28824419    -0.05400
C1603       C  0.53253081  0.23845800  0.28663911    -0.23600
C1604       C  0.51301014  0.24933724  0.28125649     0.18600
C1605       C  0.51340220  0.27213058  0.27741909     0.15800
C1606       C  0.53325172  0.28358805  0.27878533    -0.18600
C1607       C  0.49386244  0.28318186  0.27259239    -0.20500
C1608       C  0.47404626  0.27184504  0.27190111    -0.13000
C1609       C  0.47341964  0.24916860  0.27554018     0.03600
C1610       C  0.49305636  0.23793476  0.27999231    -0.25200
H1611       H  0.56698116  0.24123655  0.29258152     0.08700
H1612       H  0.53254900  0.22101018  0.28977715     0.12300
H1613       H  0.53334686  0.30107689  0.27584962     0.12300
H1614       H  0.49385423  0.30066584  0.26966020     0.12000
H1615       H  0.45914524  0.28082638  0.26847934     0.12600
H1616       H  0.49269771  0.22048592  0.28315996     0.14500
C1617       C  0.35810992  0.18595948  0.28315110    -0.05500
C1618       C  0.33909168  0.19802782  0.27852676    -0.05400
C1619       C  0.31856716  0.18812535  0.27923104    -0.23600
C1620       C  0.31661594  0.16606573  0.28513754     0.18600
C1621       C  0.33557673  0.15374508  0.29012154     0.15800
C1622       C  0.35630362  0.16366868  0.28864297    -0.18600
C1623       C  0.33335878  0.13191400  0.29700370    -0.20500
C1624       C  0.31255970  0.12257376  0.29932281    -0.13000
C1625       C  0.29373628  0.13466995  0.29406717     0.03600
C1626       C  0.29593438  0.15632506  0.28668898    -0.25200
H1627       H  0.34014135  0.21516307  0.27409984     0.08700
H1628       H  0.30419087  0.19781661  0.27547947     0.12300
H1629       H  0.37089994  0.15431175  0.29241306     0.12300
H1630       H  0.34765891  0.12223662  0.30104464     0.12000
H1631       H  0.31115874  0.10589877  0.30516209     0.12600
H1632       H  0.28143786  0.16591100  0.28305054     0.14500
C1633       C  0.22423867  0.23270191  0.39416959    -0.05500
C1634       C  0.21732663  0.21375407  0.40513050    -0.05400
C1635       C  0.21772451  0.19348640  0.39455056    -0.23600
C1636       C  0.22432739  0.19205022  0.37262354     0.18600
C1637       C  0.23111521  0.21115374  0.36147191     0.15800
C1638       C  0.23149777  0.23121173  0.37245821    -0.18600
C1639       C  0.23679319  0.21002941  0.33931790    -0.20500
C1640       C  0.23559807  0.19017316  0.32821575    -0.13000
C1641       C  0.22923040  0.17103065  0.33919406     0.03600
C1642       C  0.22383358  0.17198240  0.36149616    -0.25200
H1643       H  0.21148559  0.21467739  0.42181589     0.08700
H1644       H  0.21233884  0.17905805  0.40331607     0.12300
H1645       H  0.23635676  0.24588669  0.36374425     0.12300
H1646       H  0.24192307  0.22453967  0.33052142     0.12000
H1647       H  0.24009410  0.18967700  0.31108944     0.12600
H1648       H  0.21882456  0.15724655  0.36999717     0.14500
C1649       C  0.22068400  0.40383001  0.21434173    -0.05500
C1650       C  0.20116133  0.41347278  0.20706041    -0.05400
C1651       C  0.18141079  0.40194171  0.20860522    -0.23600
C1652       C  0.18113416  0.38046605  0.21690618     0.18600
C1653       C  0.20098679  0.37043351  0.22326117     0.15800
C1654       C  0.22048058  0.38223802  0.22217578    -0.18600
C1655       C  0.20108517  0.34876014  0.23072405    -0.20500
C1656       C  0.18157233  0.33715609  0.23232226    -0.13000
C1657       C  0.16162574  0.34715006  0.22687906     0.03600
C1658       C  0.16145637  0.36882231  0.21906544    -0.25200
H1659       H  0.20113259  0.43001553  0.20069349     0.08700
H1660       H  0.16639500  0.40979856  0.20338049     0.12300
H1661       H  0.23565100  0.37450286  0.22723167     0.12300
H1662       H  0.21623424  0.34083008  0.23545033     0.12000
H1663       H  0.18200404  0.32049473  0.23838250     0.12600
H1664       H  0.14610454  0.37649463  0.21455540     0.14500
C1665       C  0.30092032  0.31034964  0.12394276    -0.05500
C1666       C  0.30464504  0.32988218  0.11246292    -0.05400
C1667       C  0.30291350  0.35008701  0.12311568    -0.23600
C1668       C  0.29813752  0.35098631  0.14557803     0.18600
C1669       C  0.29499254  0.33130631  0.15732414     0.15800
C1670       C  0.29598974  0.31118563  0.14635451    -0.18600
C1671       C  0.29109148  0.33204633  0.17989807    -0.20500
C1672       C  0.28994661  0.35210597  0.19074211    -0.13000
C1673       C  0.29230378  0.37185022  0.17918882     0.03600
C1674       C  0.29649833  0.37115246  0.15653188    -0.25200
H1675       H  0.30868013  0.32948875  0.09522489     0.08700
H1676       H  0.30554498  0.36497779  0.11385836     0.12300
H1677       H  0.29360401  0.29608940  0.15538584     0.12300
H1678       H  0.28883783  0.31709837  0.18917028     0.12000
H1679       H  0.28658148  0.35217752  0.20812779     0.12600
H1680       H  0.29850812  0.38626231  0.14745407     0.14500
C1681       C  0.34141317  0.24082960  0.15609469    -0.05500
C1682       C  0.32956772  0.24420707  0.17545096    -0.05400
C1683       C  0.34006128  0.24363729  0.19571185    -0.23600
C1684       C  0.36250100  0.23919549  0.19696958     0.18600
C1685       C  0.37454006  0.23535845  0.17762709     0.15800
C1686       C  0.36397488  0.23658285  0.15725003    -0.18600
C1687       C  0.39681936  0.22996393  0.17907735    -0.20500
C1688       C  0.40690190  0.22782442  0.19954332    -0.13000
C1689       C  0.39504115  0.23185888  0.21872592     0.03600
C1690       C  0.37295472  0.23792890  0.21731718    -0.25200
H1691       H  0.31222524  0.24780577  0.17487905     0.08700
H1692       H  0.33059926  0.24649669  0.21039697     0.12300
H1693       H  0.37318236  0.23390333  0.14236158     0.12300
H1694       H  0.40627071  0.22685004  0.16444407     0.12000
H1695       H  0.42390645  0.22292495  0.20042878     0.12600
H1696       H  0.36362254  0.24054632  0.23215481     0.14500
C1697       C  0.22385774  0.26619498  0.98021846    -0.05500
C1698       C  0.21158370  0.26342500  0.99942282    -0.05400
C1699       C  0.22195052  0.26245474  0.01979555    -0.23600
C1700       C  0.24474197  0.26442238  0.02128675     0.18600
C1701       C  0.25706635  0.26844726  0.00216111     0.15800
C1702       C  0.24656050  0.26927124  0.98176271    -0.18600
C1703       C  0.27979700  0.27075330  0.00365578    -0.20500
C1704       C  0.29035562  0.26816689  0.02376349    -0.13000
C1705       C  0.27839823  0.26314334  0.04274960     0.03600
C1706       C  0.25547662  0.26176037  0.04144359    -0.25200
H1707       H  0.19407713  0.26090447  0.99859882     0.08700
H1708       H  0.21221753  0.25951461  0.03429457     0.12300
H1709       H  0.25613224  0.27156859  0.96702559     0.12300
H1710       H  0.28947225  0.27404950  0.98919157     0.12000
H1711       H  0.30799800  0.26952790  0.02430934     0.12600
H1712       H  0.24601889  0.25816220  0.05598700     0.14500
C1713       C  0.20508717  0.31322801  0.89557591    -0.05500
C1714       C  0.19962706  0.33308868  0.90564150    -0.05400
C1715       C  0.20245405  0.35290916  0.89446606    -0.23600
C1716       C  0.21014081  0.35306162  0.87282250     0.18600
C1717       C  0.21497693  0.33303140  0.86238112     0.15800
C1718       C  0.21280181  0.31332225  0.87394544    -0.18600
C1719       C  0.22177710  0.33301516  0.84049307    -0.20500
C1720       C  0.22407155  0.35269139  0.82908935    -0.13000
C1721       C  0.22005293  0.37274435  0.83948354     0.03600
C1722       C  0.21303387  0.37283177  0.86140199    -0.25200
H1723       H  0.19348400  0.33326758  0.92224481     0.08700
H1724       H  0.19847744  0.36808014  0.90267237     0.12300
H1725       H  0.21657561  0.29796715  0.86593981     0.12300
H1726       H  0.22537006  0.31778896  0.83220707     0.12000
H1727       H  0.22960458  0.35225980  0.81227364     0.12600
H1728       H  0.20970422  0.38823870  0.86948345     0.14500
C1729       C  0.35663291  0.35231177  0.79088838    -0.05500
C1730       C  0.33768492  0.34178282  0.78342232    -0.05400
C1731       C  0.31757059  0.35249829  0.78392464    -0.23600
C1732       C  0.31604906  0.37373989  0.79232763     0.18600
C1733       C  0.33493644  0.38438129  0.80030615     0.15800
C1734       C  0.35521324  0.37369828  0.79921287    -0.18600
C1735       C  0.33310697  0.40538351  0.80941239    -0.20500
C1736       C  0.31267177  0.41563365  0.81076163    -0.13000
C1737       C  0.29400120  0.40523740  0.80244804     0.03600
C1738       C  0.29585056  0.38437306  0.79312681    -0.25200
H1739       H  0.33852065  0.32541184  0.77674288     0.08700
H1740       H  0.30318719  0.34413728  0.77782870     0.12300
H1741       H  0.36980763  0.38186202  0.80509854     0.12300
H1742       H  0.34740354  0.41373840  0.81570737     0.12000
H1743       H  0.31146604  0.43171424  0.81805519     0.12600
H1744       H  0.28138259  0.37611286  0.78703879     0.14500
C1745       C  0.27321067  0.29293843  0.55154409    -0.05500
C1746       C  0.25046548  0.29623903  0.55132962    -0.05400
C1747       C  0.23866246  0.29487374  0.53179556    -0.23600
C1748       C  0.24942133  0.29041518  0.51207641     0.18600
C1749       C  0.27225651  0.28690533  0.51207301     0.15800
C1750       C  0.28395204  0.28794584  0.53181419    -0.18600
C1751       C  0.28307990  0.28301608  0.49223516    -0.20500
C1752       C  0.27144330  0.28314018  0.47251641    -0.13000
C1753       C  0.24874811  0.28665489  0.47238769     0.03600
C1754       C  0.23779383  0.28995966  0.49229596    -0.25200
H1755       H  0.24179337  0.30016253  0.56624095     0.08700
H1756       H  0.22117073  0.29769609  0.53205614     0.12300
H1757       H  0.30150957  0.28551124  0.53166770     0.12300
H1758       H  0.30059096  0.28032162  0.49192592     0.12000
H1759       H  0.28018133  0.28054234  0.45734935     0.12600
H1760       H  0.22032161  0.29298840  0.49231979     0.14500
C1761       C  0.39885927  0.31929332  0.72126935    -0.05500
C1762       C  0.40548519  0.30234414  0.70740425    -0.05400
C1763       C  0.39463917  0.29883956  0.68760296    -0.23600
C1764       C  0.37643964  0.31167255  0.68197643     0.18600
C1765       C  0.36990964  0.32900657  0.69580609     0.15800
C1766       C  0.38157595  0.33307434  0.71510877    -0.18600
C1767       C  0.35107470  0.34111485  0.69076684    -0.20500
C1768       C  0.33842560  0.33564563  0.67254905    -0.13000
C1769       C  0.34475244  0.31839885  0.65880298     0.03600
C1770       C  0.36405407  0.30678401  0.66332586    -0.25200
H1771       H  0.41855545  0.29138217  0.71228373     0.08700
H1772       H  0.39976756  0.28542927  0.67725837     0.12300
H1773       H  0.37611070  0.34575750  0.72621522     0.12300
H1774       H  0.34580647  0.35438338  0.70123005     0.12000
H1775       H  0.32372459  0.34496362  0.66913312     0.12600
H1776       H  0.36893454  0.29337939  0.65283127     0.14500
C1777       C  0.11748574  0.22328518  0.80063283    -0.05500
C1778       C  0.10507878  0.21880435  0.81940098    -0.05400
C1779       C  0.11395940  0.22237847  0.84022368    -0.23600
C1780       C  0.13551931  0.22994958  0.84246240     0.18600
C1781       C  0.14820516  0.23380646  0.82353054     0.15800
C1782       C  0.13902425  0.23074844  0.80284462    -0.18600
C1783       C  0.16995470  0.24057099  0.82551682    -0.20500
C1784       C  0.17912096  0.24365719  0.84611864    -0.13000
C1785       C  0.16658184  0.24045695  0.86504938     0.03600
C1786       C  0.14471938  0.23365260  0.86319690    -0.25200
H1787       H  0.08845577  0.21289789  0.81793630     0.08700
H1788       H  0.10404114  0.21914299  0.85453044     0.12300
H1789       H  0.14882949  0.23378111  0.78838687     0.12300
H1790       H  0.17988517  0.24345887  0.81113813     0.12000
H1791       H  0.19595450  0.24903632  0.84725807     0.12600
H1792       H  0.13506442  0.23097470  0.87781071     0.14500
C1793       C  0.14912102  0.17423601  0.73530645    -0.05500
C1794       C  0.16462502  0.17751641  0.75185708    -0.05400
C1795       C  0.18478247  0.16694760  0.75106596    -0.23600
C1796       C  0.18984967  0.15326835  0.73343863     0.18600
C1797       C  0.17418755  0.14958932  0.71678933     0.15800
C1798       C  0.15369528  0.15998731  0.71794603    -0.18600
C1799       C  0.17967640  0.13627693  0.69894452    -0.20500
C1800       C  0.20072902  0.12740220  0.69721962    -0.13000
C1801       C  0.21652087  0.13147205  0.71346102     0.03600
C1802       C  0.21068420  0.14398521  0.73180236    -0.25200
H1803       H  0.16124456  0.18865950  0.76519808     0.08700
H1804       H  0.19664747  0.16998819  0.76389645     0.12300
H1805       H  0.14174664  0.15777718  0.70500846     0.12300
H1806       H  0.16791345  0.13326168  0.68601962     0.12000
H1807       H  0.20480822  0.11783822  0.68291024     0.12600
H1808       H  0.22266986  0.14737647  0.74444031     0.14500
C1809       C  0.29936037  0.24289801  0.62954885    -0.05500
C1810       C  0.30836968  0.22474232  0.61876179    -0.05400
C1811       C  0.30647741  0.20377738  0.62766347    -0.23600
C1812       C  0.29594372  0.20066112  0.64775971     0.18600
C1813       C  0.28709312  0.21886574  0.65892792     0.15800
C1814       C  0.28853591  0.23980825  0.64957908    -0.18600
C1815       C  0.27729730  0.21584808  0.67943070    -0.20500
C1816       C  0.27637905  0.19501199  0.68881653    -0.13000
C1817       C  0.28473429  0.17680682  0.67762437     0.03600
C1818       C  0.29436729  0.17969525  0.65700978    -0.25200
H1819       H  0.31683709  0.22675741  0.60334812     0.08700
H1820       H  0.31348753  0.19004526  0.61896163     0.12300
H1821       H  0.28184332  0.25376408  0.65820056     0.12300
H1822       H  0.27053413  0.22960902  0.68828281     0.12000
H1823       H  0.26880852  0.19304032  0.70470292     0.12600
H1824       H  0.30105755  0.16570704  0.64843553     0.14500
C1825       C  0.73738959  0.28249631  0.04690214    -0.05500
C1826       C  0.72426345  0.28366311  0.02802253    -0.05400
C1827       C  0.73374236  0.28389460  0.00728049    -0.23600
C1828       C  0.75650208  0.28277055  0.00506648     0.18600
C1829       C  0.76979753  0.28086012  0.02393311     0.15800
C1830       C  0.76017522  0.28084113  0.04471724    -0.18600
C1831       C  0.79252915  0.27938161  0.02171276    -0.20500
C1832       C  0.80206646  0.28038425  0.00103015    -0.13000
C1833       C  0.78905304  0.28302928  0.98221464     0.03600
C1834       C  0.76620681  0.28391714  0.98434488    -0.25200
H1835       H  0.70665242  0.28496805  0.02929452     0.08700
H1836       H  0.72329297  0.28524961  0.99299931     0.12300
H1837       H  0.77042824  0.27972614  0.05917154     0.12300
H1838       H  0.80295549  0.27777376  0.03598464     0.12000
H1839       H  0.81971350  0.27963999  0.99983316     0.12600
H1840       H  0.75599213  0.28576740  0.96993757     0.14500
C1841       C  0.96913186  0.28644880  0.74699889    -0.05500
C1842       C  0.96637065  0.26366153  0.74841621    -0.05400
C1843       C  0.98441772  0.24976015  0.74950979    -0.23600
C1844       C  0.00559193  0.25836458  0.74887802     0.18600
C1845       C  0.00861555  0.28127884  0.74788208     0.15800
C1846       C  0.99035193  0.29521439  0.74723823    -0.18600
C1847       C  0.02984538  0.28979455  0.74685273    -0.20500
C1848       C  0.04784549  0.27572899  0.74606981    -0.13000
C1849       C  0.04494992  0.25291736  0.74661782     0.03600
C1850       C  0.02374938  0.24437240  0.74852557    -0.25200
H1851       H  0.95017810  0.25651594  0.74848011     0.08700
H1852       H  0.98180256  0.23225298  0.75033587     0.12300
H1853       H  0.99266257  0.31275446  0.74608245     0.12300
H1854       H  0.03250724  0.30729745  0.74614160     0.12000
H1855       H  0.06405028  0.28272566  0.74479972     0.12600
H1856       H  0.02129485  0.22681828  0.74892111     0.14500
C1857       C  0.89606552  0.31513922  0.80110396    -0.05500
C1858       C  0.90546413  0.32611282  0.81897100    -0.05400
C1859       C  0.89601086  0.32464778  0.83974701    -0.23600
C1860       C  0.87675221  0.31258845  0.84282465     0.18600
C1861       C  0.86712084  0.30170882  0.82483881     0.15800
C1862       C  0.87702744  0.30273690  0.80427986    -0.18600
C1863       C  0.84744629  0.29032760  0.82755507    -0.20500
C1864       C  0.83729177  0.28979467  0.84792558    -0.13000
C1865       C  0.84694384  0.30012680  0.86594973     0.03600
C1866       C  0.86677074  0.31138134  0.86345024    -0.25200
H1867       H  0.92004744  0.33591203  0.81685094     0.08700
H1868       H  0.90353385  0.33322375  0.85329546     0.12300
H1869       H  0.86939412  0.29452004  0.79055328     0.12300
H1870       H  0.83983858  0.28198694  0.81390388     0.12000
H1871       H  0.82211315  0.28086088  0.84976461     0.12600
H1872       H  0.87414427  0.31942771  0.87741952     0.14500
C1873       C  0.80530129  0.23157810  0.90238328    -0.05500
C1874       C  0.81192931  0.21229208  0.91300305    -0.05400
C1875       C  0.80840101  0.19189869  0.90315691    -0.23600
C1876       C  0.79885909  0.19063500  0.88225719     0.18600
C1877       C  0.79243319  0.21011810  0.87148669     0.15800
C1878       C  0.79529357  0.23031000  0.88177196    -0.18600
C1879       C  0.78378265  0.20923414  0.85030445    -0.20500
C1880       C  0.78189762  0.18925770  0.83961310    -0.13000
C1881       C  0.78808891  0.16975002  0.85007127     0.03600
C1882       C  0.79618977  0.17040806  0.87161399    -0.25200
H1883       H  0.81972124  0.21301553  0.92891243     0.08700
H1884       H  0.81354744  0.17719712  0.91164769     0.12300
H1885       H  0.79051310  0.24518795  0.87332030     0.12300
H1886       H  0.77887607  0.22403699  0.84183454     0.12000
H1887       H  0.77547088  0.18902152  0.82308106     0.12600
H1888       H  0.80116400  0.15538881  0.87966254     0.14500
C1889       C  0.73916582  0.26490590  0.55119976    -0.05500
C1890       C  0.76187144  0.26449456  0.55481229    -0.05400
C1891       C  0.77642341  0.26470258  0.53718204    -0.23600
C1892       C  0.76850349  0.26491440  0.51562538     0.18600
C1893       C  0.74570497  0.26580299  0.51186500     0.15800
C1894       C  0.73124434  0.26613557  0.52962439    -0.18600
C1895       C  0.73767224  0.26549739  0.49039464    -0.20500
C1896       C  0.75202558  0.26347306  0.47280656    -0.13000
C1897       C  0.77470855  0.26213071  0.47630553     0.03600
C1898       C  0.78290042  0.26342557  0.49779075    -0.25200
H1899       H  0.76838744  0.26369318  0.57128081     0.08700
H1900       H  0.79384005  0.26407145  0.54040246     0.12300
H1901       H  0.71377564  0.26636438  0.52657959     0.12300
H1902       H  0.72024676  0.26621139  0.48722386     0.12000
H1903       H  0.74532676  0.26270275  0.45641147     0.12600
H1904       H  0.80035744  0.26229585  0.50069290     0.14500
C1905       C  0.80017610  0.41345075  0.71672784    -0.05500
C1906       C  0.81961388  0.42404978  0.71074319    -0.05400
C1907       C  0.83986646  0.41396740  0.71446384    -0.23600
C1908       C  0.84083257  0.39287131  0.72354762     0.18600
C1909       C  0.82119904  0.38216434  0.72942987     0.15800
C1910       C  0.80112322  0.39269173  0.72641599    -0.18600
C1911       C  0.82183343  0.36080271  0.73762101    -0.20500
C1912       C  0.84170549  0.34987122  0.73950841    -0.13000
C1913       C  0.86133456  0.36026253  0.73376459     0.03600
C1914       C  0.86092748  0.38197251  0.72621224    -0.25200
H1915       H  0.81910722  0.44011821  0.70326478     0.08700
H1916       H  0.85469189  0.42241739  0.70977105     0.12300
H1917       H  0.78611176  0.38432717  0.73075216     0.12300
H1918       H  0.80692449  0.35237712  0.74211307     0.12000
H1919       H  0.84175173  0.33318529  0.74552057     0.12600
H1920       H  0.87604172  0.38995772  0.72158393     0.14500
C1921       C  0.72557774  0.38003089  0.67461494    -0.05500
C1922       C  0.72199673  0.36155430  0.68784863    -0.05400
C1923       C  0.71642976  0.34152342  0.67858839    -0.23600
C1924       C  0.71407871  0.33960830  0.65590562     0.18600
C1925       C  0.71701480  0.35814051  0.64235661     0.15800
C1926       C  0.72299158  0.37823949  0.65179191    -0.18600
C1927       C  0.71397289  0.35613343  0.61965106    -0.20500
C1928       C  0.70855418  0.33584966  0.61048556    -0.13000
C1929       C  0.70654826  0.31730170  0.62387460     0.03600
C1930       C  0.70909152  0.31934597  0.64656895    -0.25200
H1931       H  0.72376735  0.36249929  0.70545312     0.08700
H1932       H  0.71404775  0.32749635  0.68918080     0.12300
H1933       H  0.72538652  0.39245674  0.64145442     0.12300
H1934       H  0.71598129  0.37016640  0.60899741     0.12000
H1935       H  0.70666843  0.33447723  0.59292189     0.12600
H1936       H  0.70726842  0.30505844  0.65695799     0.14500
C1937       C  0.53831134  0.24179121  0.77396610    -0.05500
C1938       C  0.51950032  0.22879954  0.77149820    -0.05400
C1939       C  0.49868064  0.23828955  0.77166080    -0.23600
C1940       C  0.49630195  0.26094824  0.77423842     0.18600
C1941       C  0.51514193  0.27417400  0.77621301     0.15800
C1942       C  0.53594375  0.26454692  0.77607976    -0.18600
C1943       C  0.51289830  0.29682469  0.77859388    -0.20500
C1944       C  0.49218014  0.30631859  0.77929012    -0.13000
C1945       C  0.47327551  0.29334818  0.77778426     0.03600
C1946       C  0.47545824  0.27060283  0.77513591    -0.25200
H1947       H  0.52083765  0.21122084  0.76984964     0.08700
H1948       H  0.48444699  0.22788050  0.77002704     0.12300
H1949       H  0.55027660  0.27479820  0.77792565     0.12300
H1950       H  0.52717265  0.30719845  0.78010504     0.12000
H1951       H  0.49097684  0.32385395  0.78143441     0.12600
H1952       H  0.46100250  0.26043964  0.77385191     0.14500
C1953       C  0.61341003  0.22122163  0.71647987    -0.05500
C1954       C  0.61842114  0.20263785  0.70396788    -0.05400
C1955       C  0.62923666  0.20474733  0.68392943    -0.23600
C1956       C  0.63504163  0.22549216  0.67601771     0.18600
C1957       C  0.62872068  0.24435126  0.68779083     0.15800
C1958       C  0.61798826  0.24208498  0.70791858    -0.18600
C1959       C  0.63411217  0.26514547  0.67971644    -0.20500
C1960       C  0.64648147  0.26721852  0.66064849    -0.13000
C1961       C  0.65379210  0.24856905  0.64956669     0.03600
C1962       C  0.64776096  0.22772348  0.65702920    -0.25200
H1963       H  0.61508057  0.18640608  0.71023412     0.08700
H1964       H  0.63373036  0.19013076  0.67500606     0.12300
H1965       H  0.61400337  0.25654955  0.71734386     0.12300
H1966       H  0.62927967  0.27976549  0.68845860     0.12000
H1967       H  0.65111873  0.28337044  0.65501440     0.12600
H1968       H  0.65340177  0.21333509  0.64835756     0.14500
C1969       C  0.72068927  0.13577320  0.80435348    -0.05500
C1970       C  0.70188888  0.12445126  0.81099925    -0.05400
C1971       C  0.68117202  0.13377375  0.80800832    -0.23600
C1972       C  0.67907133  0.15477215  0.79887027     0.18600
C1973       C  0.69801900  0.16641870  0.79266050     0.15800
C1974       C  0.71860252  0.15672287  0.79512919    -0.18600
C1975       C  0.69613085  0.18770310  0.78432411    -0.20500
C1976       C  0.67560623  0.19742623  0.78210562    -0.13000
C1977       C  0.65662709  0.18586596  0.78774818     0.03600
C1978       C  0.65843189  0.16446207  0.79604650    -0.25200
H1979       H  0.70322523  0.10834229  0.81828666     0.08700
H1980       H  0.66683820  0.12467942  0.81302986     0.12300
H1981       H  0.73309948  0.16575633  0.79040591     0.12300
H1982       H  0.71053319  0.19687356  0.77963629     0.12000
H1983       H  0.67453281  0.21389842  0.77563078     0.12600
H1984       H  0.64383817  0.15555319  0.80067967     0.14500
C1985       C  0.23732260  0.97938110  0.24720694    -0.05500
C1986       C  0.23843726  0.97905969  0.27017920    -0.05400
C1987       C  0.23954253  0.99858091  0.28200740    -0.23600
C1988       C  0.23924467  0.01877723  0.27107928     0.18600
C1989       C  0.23840430  0.01926499  0.24798340     0.15800
C1990       C  0.23770305  0.99961401  0.23622092    -0.18600
C1991       C  0.23770137  0.03941211  0.23702568    -0.20500
C1992       C  0.23726163  0.05892627  0.24883771    -0.13000
C1993       C  0.23784074  0.05867850  0.27181560     0.03600
C1994       C  0.23920972  0.03848051  0.28284002    -0.25200
H1995       H  0.23828350  0.96370268  0.27903431     0.08700
H1996       H  0.24020888  0.99788597  0.29971056     0.12300
H1997       H  0.23676353  0.00013351  0.21851605     0.12300
H1998       H  0.23707766  0.04007426  0.21932011     0.12000
H1999       H  0.23634223  0.07424532  0.23995872     0.12600
H2000       H  0.23956445  0.03804425  0.30056758     0.14500
C2001       C  0.47613527  0.80125951  0.24979293    -0.05500
C2002       C  0.49500357  0.81434451  0.24881991    -0.05400
C2003       C  0.51579340  0.80486764  0.24803145    -0.23600
C2004       C  0.51820736  0.78207699  0.24841370     0.18600
C2005       C  0.49945785  0.76870711  0.25022906     0.15800
C2006       C  0.47853653  0.77835635  0.25079907    -0.18600
C2007       C  0.50196903  0.74591051  0.25097720    -0.20500
C2008       C  0.52277143  0.73645887  0.24945419    -0.13000
C2009       C  0.54150071  0.74957902  0.24696963     0.03600
C2010       C  0.53903620  0.77246417  0.24667442    -0.25200
H2011       H  0.49368344  0.83198313  0.24785707     0.08700
H2012       H  0.52997743  0.81538444  0.24674087     0.12300
H2013       H  0.46415483  0.76804691  0.25160000     0.12300
H2014       H  0.48782586  0.73536830  0.25249717     0.12000
H2015       H  0.52413761  0.71880189  0.24980650     0.12600
H2016       H  0.55330079  0.78282323  0.24496957     0.14500
C2017       C  0.36049435  0.85958473  0.22388760    -0.05500
C2018       C  0.34499700  0.84781258  0.21162688    -0.05400
C2019       C  0.32467517  0.85691115  0.20654308    -0.23600
C2020       C  0.31928242  0.87793884  0.21376287     0.18600
C2021       C  0.33479801  0.89024078  0.22571843     0.15800
C2022       C  0.35540448  0.88105079  0.23055401    -0.18600
C2023       C  0.32912525  0.91123999  0.23313103    -0.20500
C2024       C  0.30809789  0.91961197  0.22932729    -0.13000
C2025       C  0.29261321  0.90723053  0.21782502     0.03600
C2026       C  0.29836228  0.88656305  0.20981477    -0.25200
H2027       H  0.34851342  0.83138943  0.20604284     0.08700
H2028       H  0.31300388  0.84731009  0.19729140     0.12300
H2029       H  0.36717985  0.89034636  0.23998982     0.12300
H2030       H  0.34074069  0.92093340  0.24234680     0.12000
H2031       H  0.30372228  0.93548510  0.23583090     0.12600
H2032       H  0.28624870  0.87690014  0.20117720     0.14500
C2033       C  0.39423602  0.82189434  0.30049194    -0.05500
C2034       C  0.40329600  0.83214415  0.31897456    -0.05400
C2035       C  0.39338310  0.82999856  0.33955211    -0.23600
C2036       C  0.37391495  0.81804576  0.34186834     0.18600
C2037       C  0.36453322  0.80809493  0.32320505     0.15800
C2038       C  0.37490632  0.80976403  0.30284319    -0.18600
C2039       C  0.34465713  0.79693561  0.32505006    -0.20500
C2040       C  0.33400681  0.79575349  0.34513578    -0.13000
C2041       C  0.34324300  0.80518367  0.36390094     0.03600
C2042       C  0.36339563  0.81614664  0.36231355    -0.25200
H2043       H  0.41811606  0.84170585  0.31752171     0.08700
H2044       H  0.40076508  0.83792628  0.35356635     0.12300
H2045       H  0.36751643  0.80215923  0.28863324     0.12300
H2046       H  0.33719255  0.78934468  0.31088835     0.12000
H2047       H  0.31853385  0.78719446  0.34609754     0.12600
H2048       H  0.37045388  0.82367096  0.37672501     0.14500
C2049       C  0.20298591  0.80928190  0.12330308    -0.05500
C2050       C  0.19285273  0.82842118  0.11555921    -0.05400
C2051       C  0.19552834  0.84823801  0.12671796    -0.23600
C2052       C  0.20788307  0.84904233  0.14610294     0.18600
C2053       C  0.21781870  0.82972883  0.15412388     0.15800
C2054       C  0.21563276  0.81016003  0.14249699    -0.18600
C2055       C  0.22943366  0.83015180  0.17390433    -0.20500
C2056       C  0.23104246  0.84951011  0.18580972    -0.13000
C2057       C  0.22158446  0.86886660  0.17785807     0.03600
C2058       C  0.21020586  0.86865639  0.15784237    -0.25200
H2059       H  0.18296810  0.82806100  0.10084450     0.08700
H2060       H  0.18766853  0.86283493  0.12039093     0.12300
H2061       H  0.22319956  0.79539249  0.14883521     0.12300
H2062       H  0.23706079  0.81545456  0.18029315     0.12000
H2063       H  0.24001667  0.84946987  0.20111061     0.12600
H2064       H  0.20274669  0.88357642  0.15175317     0.14500
C2065       C  0.26727426  0.55152278  0.29284208    -0.05500
C2066       C  0.26622097  0.53247610  0.30577848    -0.05400
C2067       C  0.26653781  0.51170533  0.29616042    -0.23600
C2068       C  0.26769999  0.50949448  0.27335744     0.18600
C2069       C  0.26809457  0.52850840  0.26015264     0.15800
C2070       C  0.26801710  0.54933469  0.26993885    -0.18600
C2071       C  0.26888897  0.52638178  0.23735895    -0.20500
C2072       C  0.26971667  0.50569166  0.22772271    -0.13000
C2073       C  0.26999283  0.48658746  0.24062284     0.03600
C2074       C  0.26879734  0.48865799  0.26354357    -0.25200
H2075       H  0.26573059  0.53360277  0.32344450     0.08700
H2076       H  0.26612742  0.49736203  0.30659482     0.12300
H2077       H  0.26874652  0.56382480  0.25971433     0.12300
H2078       H  0.26912210  0.54075025  0.22695044     0.12000
H2079       H  0.27071974  0.50470049  0.21007100     0.12600
H2080       H  0.26892974  0.47412461  0.27373152     0.14500
C2081       C  0.28178429  0.66884784  0.35133613    -0.05500
C2082       C  0.27191703  0.68685109  0.34098978    -0.05400
C2083       C  0.27293655  0.70764710  0.35034130    -0.23600
C2084       C  0.28439205  0.71093898  0.36994361     0.18600
C2085       C  0.29460469  0.69297127  0.38043377     0.15800
C2086       C  0.29285360  0.67189856  0.37128385    -0.18600
C2087       C  0.30671637  0.69652567  0.39962708    -0.20500
C2088       C  0.30895881  0.71767195  0.40812594    -0.13000
C2089       C  0.29873134  0.73560686  0.39789406     0.03600
C2090       C  0.28620547  0.73199945  0.37891883    -0.25200
H2091       H  0.26313015  0.68473256  0.32573068     0.08700
H2092       H  0.26503947  0.72121703  0.34206135     0.12300
H2093       H  0.30058106  0.65804745  0.37927223     0.12300
H2094       H  0.31476141  0.68301648  0.40786014     0.12000
H2095       H  0.31870937  0.71999979  0.42274381     0.12600
H2096       H  0.27845713  0.74570025  0.37069284     0.14500
C2097       C  0.03375881  0.74024565  0.27230604    -0.05500
C2098       C  0.01530708  0.72660523  0.27041253    -0.05400
C2099       C  0.99413207  0.73521834  0.27174708    -0.23600
C2100       C  0.99091065  0.75769101  0.27493798     0.18600
C2101       C  0.00930084  0.77164773  0.27609564     0.15800
C2102       C  0.03053523  0.76288067  0.27479262    -0.18600
C2103       C  0.00618119  0.79413446  0.27900924    -0.20500
C2104       C  0.98512630  0.80270328  0.28115602    -0.13000
C2105       C  0.96665542  0.78899970  0.28064757     0.03600
C2106       C  0.96969211  0.76641269  0.27735383    -0.25200
H2107       H  0.01720664  0.70910352  0.26850462     0.08700
H2108       H  0.98028821  0.72423356  0.27067137     0.12300
H2109       H  0.04452728  0.77364313  0.27625029     0.12300
H2110       H  0.02005375  0.80510225  0.27988408     0.12000
H2111       H  0.98336070  0.82013297  0.28372879     0.12600
H2112       H  0.95563212  0.75565587  0.27679734     0.14500
C2113       C  0.16455453  0.73490934  0.15414822    -0.05500
C2114       C  0.17625337  0.73928805  0.17340773    -0.05400
C2115       C  0.16658570  0.73623574  0.19378069    -0.23600
C2116       C  0.14517602  0.72831409  0.19526098     0.18600
C2117       C  0.13344682  0.72293691  0.17607120     0.15800
C2118       C  0.14312814  0.72660962  0.15551070    -0.18600
C2119       C  0.11225881  0.71417575  0.17792254    -0.20500
C2120       C  0.10265303  0.71132395  0.19858169    -0.13000
C2121       C  0.11394757  0.71771489  0.21750811     0.03600
C2122       C  0.13527858  0.72591586  0.21569725    -0.25200
H2123       H  0.19273041  0.74572611  0.17268065     0.08700
H2124       H  0.17580681  0.74023960  0.20839110     0.12300
H2125       H  0.13412930  0.72295352  0.14066655     0.12300
H2126       H  0.10309608  0.70968894  0.16342682     0.12000
H2127       H  0.08625249  0.70478470  0.19974571     0.12600
H2128       H  0.14425359  0.73039705  0.23034850     0.14500
C2129       C  0.21396390  0.63285543  0.31050589    -0.05500
C2130       C  0.19467078  0.62256377  0.31737471    -0.05400
C2131       C  0.17435523  0.63257583  0.31377751    -0.23600
C2132       C  0.17313616  0.65328172  0.30381852     0.18600
C2133       C  0.19258472  0.66402211  0.29754718     0.15800
C2134       C  0.21277901  0.65360608  0.30062178    -0.18600
C2135       C  0.19154079  0.68506681  0.28842521    -0.20500
C2136       C  0.17136203  0.69534687  0.28530501    -0.13000
C2137       C  0.15188538  0.68457649  0.29082039     0.03600
C2138       C  0.15287330  0.66350679  0.30010302    -0.25200
H2139       H  0.19530863  0.60667196  0.32520518     0.08700
H2140       H  0.15961968  0.62419717  0.31889240     0.12300
H2141       H  0.22768311  0.66188163  0.29576060     0.12300
H2142       H  0.20633654  0.69358111  0.28371018     0.12000
H2143       H  0.17093820  0.71154860  0.27811612     0.12600
H2144       H  0.13789794  0.65521499  0.30467793     0.14500
C2145       C  0.27140778  0.99341310  0.78566609    -0.05500
C2146       C  0.26897045  0.01259938  0.79808089    -0.05400
C2147       C  0.26919307  0.03312146  0.78804920    -0.23600
C2148       C  0.27172925  0.03491541  0.76535705     0.18600
C2149       C  0.27372447  0.01579392  0.75256272     0.15800
C2150       C  0.27365272  0.99515850  0.76279672    -0.18600
C2151       C  0.27592882  0.01770234  0.72979145    -0.20500
C2152       C  0.27644482  0.03834998  0.71985891    -0.13000
C2153       C  0.27500062  0.05745871  0.73253691     0.03600
C2154       C  0.27249460  0.05555119  0.75531133    -0.25200
H2155       H  0.26722502  0.01180064  0.81568638     0.08700
H2156       H  0.26754462  0.04761528  0.79808685     0.12300
H2157       H  0.27543976  0.98052353  0.75298131     0.12300
H2158       H  0.27739973  0.00324264  0.71968016     0.12000
H2159       H  0.27841274  0.03937115  0.70228613     0.12600
H2160       H  0.27115468  0.07014607  0.76526394     0.14500
C2161       C  0.15000813  0.86484399  0.79218505    -0.05500
C2162       C  0.16929817  0.85319827  0.78787419    -0.05400
C2163       C  0.18958757  0.86328723  0.78994131    -0.23600
C2164       C  0.19093023  0.88507264  0.79680618     0.18600
C2165       C  0.17170950  0.89676375  0.80209140     0.15800
C2166       C  0.15125066  0.88664650  0.79940263    -0.18600
C2167       C  0.17340358  0.91829684  0.80995218    -0.20500
C2168       C  0.19396873  0.92814645  0.81234085    -0.13000
C2169       C  0.21294464  0.91680384  0.80623206     0.03600
C2170       C  0.21127137  0.89527188  0.79855048    -0.25200
H2171       H  0.16864428  0.83642173  0.78224067     0.08700
H2172       H  0.20422290  0.85408259  0.78607066     0.12300
H2173       H  0.13638776  0.89559912  0.80301491     0.12300
H2174       H  0.15888443  0.92742354  0.81436837     0.12000
H2175       H  0.19505221  0.94464482  0.81865815     0.12600
H2176       H  0.22595893  0.88620161  0.79447041     0.14500
C2177       C  0.22229513  0.76299332  0.03950199    -0.05500
C2178       C  0.20942682  0.76596337  0.02062860    -0.05400
C2179       C  0.21903574  0.76619643  0.99990655    -0.23600
C2180       C  0.24168735  0.76352238  0.99770646     0.18600
C2181       C  0.25486934  0.76160235  0.01664423     0.15800
C2182       C  0.24511740  0.76138073  0.03737265    -0.18600
C2183       C  0.27754337  0.75924581  0.01452641    -0.20500
C2184       C  0.28702796  0.75812703  0.99382771    -0.13000
C2185       C  0.27400521  0.75914790  0.97487253     0.03600
C2186       C  0.25132206  0.76217574  0.97692334    -0.25200
H2187       H  0.19180956  0.76726898  0.02179750     0.08700
H2188       H  0.20869017  0.76788912  0.98559062     0.12300
H2189       H  0.25526207  0.75924916  0.05178711     0.12300
H2190       H  0.28790206  0.75786843  0.02886793     0.12000
H2191       H  0.30455086  0.75583778  0.99267275     0.12600
H2192       H  0.24117281  0.76324533  0.96239852     0.14500
C2193       C  0.29165898  0.81247836  0.89708859    -0.05500
C2194       C  0.29890318  0.83094708  0.90857263    -0.05400
C2195       C  0.29622029  0.85186647  0.89958118    -0.23600
C2196       C  0.28695258  0.85444282  0.87868581     0.18600
C2197       C  0.27979625  0.83580058  0.86705557     0.15800
C2198       C  0.28177082  0.81507158  0.87652357    -0.18600
C2199       C  0.27140425  0.83806776  0.84584096    -0.20500
C2200       C  0.27058823  0.85859398  0.83595075    -0.13000
C2201       C  0.27758594  0.87722732  0.84731977     0.03600
C2202       C  0.28533289  0.87517764  0.86888654    -0.25200
H2203       H  0.30656459  0.82917351  0.92446718     0.08700
H2204       H  0.30187463  0.86594780  0.90870298     0.12300
H2205       H  0.27647574  0.80079508  0.86744253     0.12300
H2206       H  0.26591284  0.82391118  0.83672594     0.12000
H2207       H  0.26435701  0.85995654  0.81939830     0.12600
H2208       H  0.29087140  0.88955018  0.87764362     0.14500
C2209       C  0.33142883  0.74259232  0.85790368    -0.05500
C2210       C  0.31974945  0.74664330  0.83851327    -0.05400
C2211       C  0.33016322  0.74534306  0.81824329    -0.23600
C2212       C  0.35231535  0.73953290  0.81704245     0.18600
C2213       C  0.36405204  0.73482171  0.83644258     0.15800
C2214       C  0.35361191  0.73668724  0.85676092    -0.18600
C2215       C  0.38597444  0.72816306  0.83516010    -0.20500
C2216       C  0.39614663  0.72606960  0.81481652    -0.13000
C2217       C  0.38473934  0.73119472  0.79553487     0.03600
C2218       C  0.36285193  0.73806526  0.79675750    -0.25200
H2219       H  0.30267061  0.75131757  0.83907275     0.08700
H2220       H  0.32089217  0.74884163  0.80351775     0.12300
H2221       H  0.36266025  0.73330954  0.87166534     0.12300
H2222       H  0.39515605  0.72432283  0.84985500     0.12000
H2223       H  0.41297360  0.72057292  0.81412825     0.12600
H2224       H  0.35382479  0.74156099  0.78186102     0.14500
C2225       C  0.24585172  0.48532968  0.77623133    -0.05500
C2226       C  0.24941199  0.50426470  0.78876861    -0.05400
C2227       C  0.25080587  0.52472423  0.77880073    -0.23600
C2228       C  0.24873665  0.52665950  0.75608672     0.18600
C2229       C  0.24606085  0.50771105  0.74315056     0.15800
C2230       C  0.24462549  0.48713469  0.75330810    -0.18600
C2231       C  0.24422642  0.50978904  0.72035621    -0.20500
C2232       C  0.24420246  0.53050108  0.71059374    -0.13000
C2233       C  0.24585897  0.54940779  0.72350546     0.03600
C2234       C  0.24860330  0.54731936  0.74620662    -0.25200
H2235       H  0.25049094  0.50339021  0.80643102     0.08700
H2236       H  0.25300260  0.53909064  0.78892050     0.12300
H2237       H  0.24200205  0.47266750  0.74343249     0.12300
H2238       H  0.24227439  0.49545572  0.71014885     0.12000
H2239       H  0.24199642  0.53176135  0.69305312     0.12600
H2240       H  0.25008288  0.56182663  0.75627667     0.14500
C2241       C  0.35572250  0.68436359  0.72776063    -0.05500
C2242       C  0.33655979  0.69278126  0.73705980    -0.05400
C2243       C  0.31699713  0.68130035  0.73547843    -0.23600
C2244       C  0.31623465  0.66152684  0.72400765     0.18600
C2245       C  0.33542357  0.65299704  0.71433361     0.15800
C2246       C  0.35526372  0.66429011  0.71670132    -0.18600
C2247       C  0.33423302  0.63367258  0.70202607    -0.20500
C2248       C  0.31413306  0.62316014  0.69902406    -0.13000
C2249       C  0.29515321  0.63148419  0.70884881     0.03600
C2250       C  0.29640854  0.65050594  0.72156109    -0.25200
H2251       H  0.33681646  0.70821205  0.74575089     0.08700
H2252       H  0.30240371  0.68807054  0.74287618     0.12300
H2253       H  0.37008945  0.65794164  0.70937412     0.12300
H2254       H  0.34871444  0.62697763  0.69436195     0.12000
H2255       H  0.31340136  0.60855216  0.68906257     0.12600
H2256       H  0.28172519  0.65728030  0.72881771     0.14500
C2257       C  0.27171119  0.78834707  0.47302547    -0.05500
C2258       C  0.24888571  0.79104201  0.47184018    -0.05400
C2259       C  0.23609835  0.79041052  0.49071843    -0.23600
C2260       C  0.24589262  0.78730082  0.51122056     0.18600
C2261       C  0.26875310  0.78410471  0.51263589     0.15800
C2262       C  0.28148853  0.78440608  0.49352188    -0.18600
C2263       C  0.27856466  0.78141818  0.53322257    -0.20500
C2264       C  0.26597917  0.78273792  0.55224189    -0.13000
C2265       C  0.24330597  0.78636087  0.55101193     0.03600
C2266       C  0.23329227  0.78809761  0.53036589    -0.25200
H2267       H  0.24087779  0.79401094  0.45629594     0.08700
H2268       H  0.21860344  0.79287853  0.48932232     0.12300
H2269       H  0.29905639  0.78236655  0.49471975     0.12300
H2270       H  0.29604625  0.77889018  0.53464742     0.12000
H2271       H  0.27404721  0.78121754  0.56796191     0.12600
H2272       H  0.21584611  0.79105427  0.52920639     0.14500
C2273       C  0.21223055  0.73625272  0.62630357    -0.05500
C2274       C  0.20406536  0.71868849  0.61401757    -0.05400
C2275       C  0.20551585  0.69731995  0.62208424    -0.23600
C2276       C  0.21466171  0.69333107  0.64277880     0.18600
C2277       C  0.22222409  0.71109783  0.65550152     0.15800
C2278       C  0.22126704  0.73235213  0.64704717    -0.18600
C2279       C  0.23056603  0.70734712  0.67651994    -0.20500
C2280       C  0.23161894  0.68613651  0.68482747    -0.13000
C2281       C  0.22482141  0.66831834  0.67208352     0.03600
C2282       C  0.21637195  0.67194625  0.65102341    -0.25200
H2283       H  0.19691597  0.72146566  0.59802431     0.08700
H2284       H  0.19944109  0.68395200  0.61219392     0.12300
H2285       H  0.22718725  0.74593230  0.65678010     0.12300
H2286       H  0.23628934  0.72079814  0.68651663     0.12000
H2287       H  0.23831563  0.68356456  0.70105618     0.12600
H2288       H  0.21094519  0.65820597  0.64124402     0.14500
C2289       C  0.11830204  0.82598345  0.71971002    -0.05500
C2290       C  0.10855751  0.83285251  0.70004035    -0.05400
C2291       C  0.11957958  0.83017728  0.68011190    -0.23600
C2292       C  0.14075302  0.82119853  0.67969806     0.18600
C2293       C  0.15083660  0.81498214  0.69960535     0.15800
C2294       C  0.13943827  0.81704873  0.71932188    -0.18600
C2295       C  0.17226534  0.80693138  0.69957228    -0.20500
C2296       C  0.18361634  0.80478019  0.67996887    -0.13000
C2297       C  0.17363191  0.81016085  0.65995985     0.03600
C2298       C  0.15211694  0.81839548  0.65986776    -0.25200
H2299       H  0.09233786  0.83998171  0.70007689     0.08700
H2300       H  0.11163554  0.83526564  0.66508174     0.12300
H2301       H  0.14726426  0.81220555  0.73452312     0.12300
H2302       H  0.18026652  0.80229533  0.71472419     0.12000
H2303       H  0.20013028  0.79835790  0.68040963     0.12600
H2304       H  0.14440961  0.82283584  0.64450173     0.14500
C2305       C  0.77504759  0.05999942  0.77900273    -0.05500
C2306       C  0.77681242  0.06103298  0.75608258    -0.05400
C2307       C  0.77583657  0.04203751  0.74346648    -0.23600
C2308       C  0.77331975  0.02159624  0.75353675     0.18600
C2309       C  0.77155806  0.02033852  0.77657126     0.15800
C2310       C  0.77222480  0.03952789  0.78912234    -0.18600
C2311       C  0.76956308  0.99986442  0.78669977    -0.20500
C2312       C  0.76968669  0.98079742  0.77417666    -0.13000
C2313       C  0.77143491  0.98185342  0.75127492     0.03600
C2314       C  0.77296190  0.00236998  0.74101065    -0.25200
H2315       H  0.77901719  0.07657084  0.74785357     0.08700
H2316       H  0.77730882  0.04332119  0.72584750     0.12300
H2317       H  0.77104363  0.03844915  0.80678567     0.12300
H2318       H  0.76823064  0.99857139  0.80432987     0.12000
H2319       H  0.76843454  0.96516118  0.78243446     0.12600
H2320       H  0.77456834  0.00333484  0.72337318     0.14500
C2321       C  0.73668260  0.75037187  0.47952563    -0.05500
C2322       C  0.75967449  0.75049135  0.47956117    -0.05400
C2323       C  0.77135235  0.75066218  0.49918706    -0.23600
C2324       C  0.76028047  0.75044417  0.51920891     0.18600
C2325       C  0.73716921  0.75060452  0.51946910     0.15800
C2326       C  0.72549587  0.75082983  0.49961740    -0.18600
C2327       C  0.72617995  0.75000843  0.53958180    -0.20500
C2328       C  0.73797051  0.74881375  0.55919646    -0.13000
C2329       C  0.76096055  0.74850192  0.55907208     0.03600
C2330       C  0.77198515  0.74960923  0.53894612    -0.25200
H2331       H  0.76870503  0.75030457  0.46434400     0.08700
H2332       H  0.78906212  0.75058053  0.49869312     0.12300
H2333       H  0.70777563  0.75066017  0.49982631     0.12300
H2334       H  0.70847513  0.75013124  0.54013510     0.12000
H2335       H  0.72907847  0.74809901  0.57447890     0.12600
H2336       H  0.78970398  0.74927981  0.53857452     0.14500
C2337       C  0.78672842  0.80505570  0.63274077    -0.05500
C2338       C  0.79630635  0.82288670  0.62186789    -0.05400
C2339       C  0.79568178  0.84381048  0.63115328    -0.23600
C2340       C  0.78608828  0.84701536  0.65175273     0.18600
C2341       C  0.77649118  0.82903906  0.66271163     0.15800
C2342       C  0.77643606  0.80840614  0.65293407    -0.18600
C2343       C  0.76775988  0.83174293  0.68366423    -0.20500
C2344       C  0.76886179  0.85199283  0.69393034    -0.13000
C2345       C  0.77813692  0.87002437  0.68321107     0.03600
C2346       C  0.78641765  0.86763147  0.66192597    -0.25200
H2347       H  0.80443623  0.82058508  0.60632302     0.08700
H2348       H  0.80323125  0.85732974  0.62253382     0.12300
H2349       H  0.76938008  0.79466010  0.66165778     0.12300
H2350       H  0.76044092  0.81809219  0.69228787     0.12000
H2351       H  0.76219438  0.85367245  0.71024712     0.12600
H2352       H  0.79369641  0.88154497  0.65368453     0.14500
C2353       C  0.73987800  0.79057657  0.97479655    -0.05500
C2354       C  0.76276308  0.79295220  0.97423085    -0.05400
C2355       C  0.77505040  0.79315677  0.99358301    -0.23600
C2356       C  0.76469142  0.79123054  0.01394862     0.18600
C2357       C  0.74173109  0.78871810  0.01471119     0.15800
C2358       C  0.72952846  0.78820640  0.99519390    -0.18600
C2359       C  0.73126935  0.78718100  0.03502142    -0.20500
C2360       C  0.74333539  0.78847414  0.05441101    -0.13000
C2361       C  0.76617489  0.79106328  0.05396769     0.03600
C2362       C  0.77680312  0.79217725  0.03356069    -0.25200
H2363       H  0.77120669  0.79479950  0.95878562     0.08700
H2364       H  0.79262583  0.79512756  0.99262292     0.12300
H2365       H  0.71190664  0.78652200  0.99594911     0.12300
H2366       H  0.71368566  0.78526898  0.03593171     0.12000
H2367       H  0.73471338  0.78749800  0.06983294     0.12600
H2368       H  0.79437894  0.79433475  0.03292698     0.14500
C2369       C  0.46247478  0.75789097  0.74636232    -0.05500
C2370       C  0.46044260  0.78075818  0.74750744    -0.05400
C2371       C  0.47894031  0.79394819  0.74966851    -0.23600
C2372       C  0.49983012  0.78451549  0.75031422     0.18600
C2373       C  0.50203955  0.76151260  0.74944669     0.15800
C2374       C  0.48334557  0.74834251  0.74778935    -0.18600
C2375       C  0.52294585  0.75210659  0.74952429    -0.20500
C2376       C  0.54150866  0.76538415  0.74965846    -0.13000
C2377       C  0.53950677  0.78828729  0.75011797     0.03600
C2378       C  0.51855693  0.79772907  0.75099674    -0.25200
H2379       H  0.44451631  0.78847694  0.74660043     0.08700
H2380       H  0.47693507  0.81154494  0.75031942     0.12300
H2381       H  0.48511400  0.73072798  0.74678220     0.12300
H2382       H  0.52494856  0.73450885  0.74887282     0.12000
H2383       H  0.55746774  0.75771725  0.74904431     0.12600
H2384       H  0.51679134  0.81537281  0.75116156     0.14500
C2385       C  0.66963412  0.79952494  0.86337559    -0.05500
C2386       C  0.68052643  0.79391725  0.84397805    -0.05400
C2387       C  0.66988084  0.79524202  0.82384034    -0.23600
C2388       C  0.64827584  0.80273582  0.82266086     0.18600
C2389       C  0.63707122  0.80846944  0.84205054     0.15800
C2390       C  0.64770361  0.80639466  0.86240749    -0.18600
C2391       C  0.61569682  0.81675723  0.84060379    -0.20500
C2392       C  0.60578422  0.81982759  0.82014447    -0.13000
C2393       C  0.61685028  0.81409318  0.80086534     0.03600
C2394       C  0.63796331  0.80518233  0.80231026    -0.25200
H2395       H  0.69736236  0.78839422  0.84442250     0.08700
H2396       H  0.67870440  0.79082733  0.80914118     0.12300
H2397       H  0.63927418  0.81089313  0.87731952     0.12300
H2398       H  0.60684657  0.82131703  0.85523712     0.12000
H2399       H  0.58946602  0.82669154  0.81937368     0.12600
H2400       H  0.64673904  0.80098046  0.78750382     0.14500
C2401       C  0.64368414  0.86507555  0.72815555    -0.05500
C2402       C  0.65150842  0.86574485  0.70660868    -0.05400
C2403       C  0.67034483  0.87757997  0.70148286    -0.23600
C2404       C  0.68207169  0.88831246  0.71800744     0.18600
C2405       C  0.67431247  0.88764998  0.73980361     0.15800
C2406       C  0.65483723  0.87645489  0.74465161    -0.18600
C2407       C  0.68666989  0.89738815  0.75649227    -0.20500
C2408       C  0.70684632  0.90702224  0.75176575    -0.13000
C2409       C  0.71462553  0.90779531  0.73018994     0.03600
C2410       C  0.70191412  0.89885035  0.71327628    -0.25200
H2411       H  0.64304707  0.85697234  0.69374978     0.08700
H2412       H  0.67610313  0.87777457  0.68473504     0.12300
H2413       H  0.64897516  0.87563045  0.76135852     0.12300
H2414       H  0.68108750  0.89690959  0.77329240     0.12000
H2415       H  0.71652199  0.91371383  0.76501171     0.12600
H2416       H  0.70808649  0.89897158  0.69666025     0.14500
C2417       C  0.03554133  0.80523181  0.76733067    -0.05500
C2418       C  0.01635138  0.81769243  0.76474673    -0.05400
C2419       C  0.99585162  0.80758292  0.76452547    -0.23600
C2420       C  0.99418395  0.78482385  0.76681047     0.18600
C2421       C  0.01344304  0.77206700  0.76811247     0.15800
C2422       C  0.03394665  0.78231975  0.76833526    -0.18600
C2423       C  0.01187409  0.74930346  0.77005360    -0.20500
C2424       C  0.99144678  0.73932609  0.77176974    -0.13000
C2425       C  0.97218345  0.75191444  0.77172237     0.03600
C2426       C  0.97365309  0.77467770  0.76867099    -0.25200
H2427       H  0.01710379  0.83536063  0.76379500     0.08700
H2428       H  0.98129051  0.81762694  0.76325658     0.12300
H2429       H  0.04861189  0.77247732  0.77006217     0.12300
H2430       H  0.02646561  0.73925830  0.77090264     0.12000
H2431       H  0.99080550  0.72177385  0.77407521     0.12600
H2432       H  0.95891019  0.78454134  0.76840637     0.14500
C2433       C  0.82994716  0.73723434  0.67068198    -0.05500
C2434       C  0.82152656  0.74649257  0.68987366    -0.05400
C2435       C  0.83375380  0.74617857  0.70916833    -0.23600
C2436       C  0.85436740  0.73612057  0.70964132     0.18600
C2437       C  0.86265408  0.72604208  0.69059033     0.15800
C2438       C  0.85052185  0.72699782  0.67108196    -0.18600
C2439       C  0.88289100  0.71518108  0.69144344    -0.20500
C2440       C  0.89491994  0.71454040  0.71095031    -0.13000
C2441       C  0.88712924  0.72522382  0.72966918     0.03600
C2442       C  0.86677714  0.73591105  0.72889820    -0.25200
H2443       H  0.80570220  0.75448803  0.68976862     0.08700
H2444       H  0.82711274  0.75380865  0.72369202     0.12300
H2445       H  0.85690843  0.71960660  0.65631172     0.12300
H2446       H  0.88935895  0.70713717  0.67707358     0.12000
H2447       H  0.91043830  0.70599259  0.71133334     0.12600
H2448       H  0.86036955  0.74370658  0.74345868     0.14500
C2449       C  0.75289861  0.49476643  0.73264266    -0.05500
C2450       C  0.75399750  0.51408051  0.72020765    -0.05400
C2451       C  0.75455691  0.53444955  0.73049917    -0.23600
C2452       C  0.75409886  0.53580106  0.75338483     0.18600
C2453       C  0.75426954  0.51642981  0.76603243     0.15800
C2454       C  0.75372063  0.49605610  0.75559077    -0.18600
C2455       C  0.75405799  0.51776651  0.78891191    -0.20500
C2456       C  0.75248988  0.53808602  0.79916720    -0.13000
C2457       C  0.75109201  0.55740068  0.78671330     0.03600
C2458       C  0.75257748  0.55615180  0.76379865    -0.25200
H2459       H  0.75346945  0.51349392  0.70251073     0.08700
H2460       H  0.75462687  0.54914164  0.72055739     0.12300
H2461       H  0.75317642  0.48123794  0.76534802     0.12300
H2462       H  0.75440388  0.50307710  0.79885708     0.12000
H2463       H  0.75156059  0.53859418  0.81684745     0.12600
H2464       H  0.75180489  0.57093949  0.75401196     0.14500
C2465       C  0.79819315  0.63804511  0.81471555    -0.05500
C2466       C  0.81709894  0.62745762  0.82235362    -0.05400
C2467       C  0.83735593  0.63817732  0.82161208    -0.23600
C2468       C  0.83875137  0.65979239  0.81381030     0.18600
C2469       C  0.81948664  0.67075357  0.80714834     0.15800
C2470       C  0.79950473  0.65973043  0.80734789    -0.18600
C2471       C  0.82046346  0.69254338  0.80016459    -0.20500
C2472       C  0.84047874  0.70329929  0.79910718    -0.13000
C2473       C  0.85990274  0.69234166  0.80460394     0.03600
C2474       C  0.85897661  0.67060034  0.81220221    -0.25200
H2475       H  0.81626327  0.61080342  0.82835606     0.08700
H2476       H  0.85189315  0.62957766  0.82704302     0.12300
H2477       H  0.78480626  0.66814905  0.80197621     0.12300
H2478       H  0.80577585  0.70117263  0.79519000     0.12000
H2479       H  0.84086995  0.71994988  0.79302935     0.12600
H2480       H  0.87393320  0.66210079  0.81657896     0.14500
C2481       C  0.72482457  0.67190628  0.84504103    -0.05500
C2482       C  0.72977183  0.69116981  0.83354628    -0.05400
C2483       C  0.72876687  0.71139017  0.84394189    -0.23600
C2484       C  0.72246733  0.71266915  0.86590524     0.18600
C2485       C  0.71657380  0.69348206  0.87740039     0.15800
C2486       C  0.71802124  0.67314629  0.86694159    -0.18600
C2487       C  0.70942260  0.69501781  0.89914716    -0.20500
C2488       C  0.70818683  0.71541007  0.90939476    -0.13000
C2489       C  0.71467978  0.73437506  0.89821753     0.03600
C2490       C  0.72183505  0.73288109  0.87649365    -0.25200
H2491       H  0.73516420  0.69053233  0.81669028     0.08700
H2492       H  0.73310871  0.72599059  0.83487259     0.12300
H2493       H  0.71397545  0.65833254  0.87581668     0.12300
H2494       H  0.70461017  0.68051646  0.90812541     0.12000
H2495       H  0.70224879  0.71638407  0.92604396     0.12600
H2496       H  0.72620786  0.74758762  0.86757492     0.14500
C2497       C  0.92106442  0.94850979  0.69624710    -0.05500
C2498       C  0.91656089  0.93166541  0.71126178    -0.05400
C2499       C  0.89502518  0.92618804  0.71647396    -0.23600
C2500       C  0.87752361  0.93728987  0.70660949     0.18600
C2501       C  0.88178184  0.95419672  0.69140793     0.15800
C2502       C  0.90350398  0.95982652  0.68645908    -0.18600
C2503       C  0.86422561  0.96502648  0.68128633    -0.20500
C2504       C  0.84267710  0.95914317  0.68615246    -0.13000
C2505       C  0.83825329  0.94247626  0.70140483     0.03600
C2506       C  0.85584882  0.93165620  0.71161292    -0.25200
H2507       H  0.92973056  0.92269352  0.71905174     0.08700
H2508       H  0.89206365  0.91315214  0.72813083     0.12300
H2509       H  0.90670736  0.97273821  0.67471734     0.12300
H2510       H  0.86715289  0.97799920  0.66954934     0.12000
H2511       H  0.82944950  0.96780121  0.67810584     0.12600
H2512       H  0.85270474  0.91868291  0.72330289     0.14500
C2513       C  0.18812706  0.94210635  0.58912715    -0.05500
C2514       C  0.20041377  0.93709435  0.60793511    -0.05400
C2515       C  0.20775056  0.91575752  0.61165507    -0.23600
C2516       C  0.20269172  0.89913057  0.59672419     0.18600
C2517       C  0.19070103  0.90418307  0.57757345     0.15800
C2518       C  0.18371726  0.92559965  0.57381911    -0.18600
C2519       C  0.18518173  0.88760167  0.56281325    -0.20500
C2520       C  0.19052126  0.86596402  0.56753951    -0.13000
C2521       C  0.20187334  0.86069509  0.58681597     0.03600
C2522       C  0.20858414  0.87740021  0.60102672    -0.25200
H2523       H  0.20416828  0.94960151  0.61987886     0.08700
H2524       H  0.21693348  0.91217194  0.62640817     0.12300
H2525       H  0.17434062  0.92924238  0.55918886     0.12300
H2526       H  0.17608220  0.89126175  0.54802277     0.12000
H2527       H  0.18537224  0.85325335  0.55634197     0.12600
H2528       H  0.21720116  0.87335068  0.61601606     0.14500
C2529       C  0.04439003  0.97338854  0.65832219    -0.05500
C2530       C  0.06330236  0.97209397  0.67130047    -0.05400
C2531       C  0.08390937  0.97611110  0.66208903    -0.23600
C2532       C  0.08587739  0.98084867  0.63965818     0.18600
C2533       C  0.06685790  0.98133512  0.62646125     0.15800
C2534       C  0.04630119  0.97796117  0.63592950    -0.18600
C2535       C  0.06864912  0.98516493  0.60396488    -0.20500
C2536       C  0.08906202  0.98877994  0.59455595    -0.13000
C2537       C  0.10810438  0.98902268  0.60747304     0.03600
C2538       C  0.10641638  0.98503109  0.63011582    -0.25200
H2539       H  0.06206526  0.96844565  0.68859520     0.08700
H2540       H  0.09828382  0.97545355  0.67246828     0.12300
H2541       H  0.03171690  0.97854231  0.62579512     0.12300
H2542       H  0.05423241  0.98538743  0.59361606     0.12000
H2543       H  0.08989313  0.99182076  0.57711860     0.12600
H2544       H  0.12102897  0.98491509  0.64018972     0.14500
C2545       C  0.07883187  0.20037127  0.67732432    -0.05500
C2546       C  0.06387221  0.18368493  0.67226966    -0.05400
C2547       C  0.05847181  0.17913823  0.65052700    -0.23600
C2548       C  0.06806235  0.19110068  0.63347569     0.18600
C2549       C  0.08315776  0.20786625  0.63839399     0.15800
C2550       C  0.08831217  0.21247921  0.66022768    -0.18600
C2551       C  0.09308142  0.21958212  0.62138182    -0.20500
C2552       C  0.08828471  0.21457479  0.59963835    -0.13000
C2553       C  0.07323977  0.19801058  0.59455590     0.03600
C2554       C  0.06303425  0.18642335  0.61158994    -0.25200
H2555       H  0.05635493  0.17409914  0.68512300     0.08700
H2556       H  0.04692631  0.16617268  0.64704702     0.12300
H2557       H  0.09996089  0.22532319  0.66384985     0.12300
H2558       H  0.10471074  0.23246673  0.62488480     0.12000
H2559       H  0.09629497  0.22373313  0.58676955     0.12600
H2560       H  0.05157602  0.17344714  0.60781910     0.14500
C2561       C  0.09058656  0.12386164  0.54362627    -0.05500
C2562       C  0.07875050  0.10443821  0.54067415    -0.05400
C2563       C  0.08847289  0.08426026  0.54492061    -0.23600
C2564       C  0.11001696  0.08326903  0.55264345     0.18600
C2565       C  0.12194155  0.10275948  0.55612817     0.15800
C2566       C  0.11224354  0.12296408  0.55122520    -0.18600
C2567       C  0.14323427  0.10165796  0.56468342    -0.20500
C2568       C  0.15263425  0.08138691  0.56966225    -0.13000
C2569       C  0.14103587  0.06205921  0.56558876     0.03600
C2570       C  0.11977193  0.06308258  0.55707846    -0.25200
H2571       H  0.06202213  0.10487086  0.53482549     0.08700
H2572       H  0.07910281  0.06945485  0.54232259     0.12300
H2573       H  0.12130182  0.13797085  0.55383015     0.12300
H2574       H  0.15254145  0.11643637  0.56760280     0.12000
H2575       H  0.16908486  0.08075228  0.57622746     0.12600
H2576       H  0.11069611  0.04811304  0.55424635     0.14500
C2577       C  0.94924943  0.84910496  0.43106555    -0.05500
C2578       C  0.95919471  0.86284825  0.41554011    -0.05400
C2579       C  0.95551376  0.85982590  0.39317476    -0.23600
C2580       C  0.94206332  0.84278085  0.38588018     0.18600
C2581       C  0.93246192  0.82849114  0.40133086     0.15800
C2582       C  0.93592514  0.83186690  0.42381149    -0.18600
C2583       C  0.91941971  0.81115460  0.39403586    -0.20500
C2584       C  0.91552881  0.80825644  0.37170410    -0.13000
C2585       C  0.92442259  0.82274173  0.35618411     0.03600
C2586       C  0.93788952  0.83990891  0.36343673    -0.25200
H2587       H  0.96949353  0.87627541  0.42072849     0.08700
H2588       H  0.96309802  0.87089081  0.38159932     0.12300
H2589       H  0.92835870  0.82103764  0.43563492     0.12300
H2590       H  0.91205610  0.79993984  0.40561082     0.12000
H2591       H  0.90511999  0.79487707  0.36662570     0.12600
H2592       H  0.94500514  0.85110032  0.35167291     0.14500
C2593       C  0.96501947  0.87973193  0.55776552    -0.05500
C2594       C  0.95808539  0.86802587  0.57627692    -0.05400
C2595       C  0.95986670  0.87735742  0.59717768    -0.23600
C2596       C  0.96792525  0.89874204  0.59971563     0.18600
C2597       C  0.97432610  0.91068288  0.58095942     0.15800
C2598       C  0.97319302  0.90098566  0.56031784    -0.18600
C2599       C  0.98148085  0.93229517  0.58302912    -0.20500
C2600       C  0.98228452  0.94216488  0.60349518    -0.13000
C2601       C  0.97643897  0.93046872  0.62236971     0.03600
C2602       C  0.96944574  0.90861988  0.62047179    -0.25200
H2603       H  0.95157278  0.85167092  0.57457522     0.08700
H2604       H  0.95468040  0.86796509  0.61132312     0.12300
H2605       H  0.97809784  0.91032097  0.54600176     0.12300
H2606       H  0.98631735  0.94167187  0.56873998     0.12000
H2607       H  0.98787243  0.95891749  0.60464129     0.12600
H2608       H  0.96474217  0.89956651  0.63501349     0.14500
C2609       C  0.83731503  0.10748358  0.45558868    -0.05500
C2610       C  0.82150818  0.11126951  0.43927674    -0.05400
C2611       C  0.81522569  0.13250631  0.43376395    -0.23600
C2612       C  0.82474164  0.15042808  0.44432713     0.18600
C2613       C  0.84065888  0.14694900  0.46076122     0.15800
C2614       C  0.84674742  0.12547571  0.46641556    -0.18600
C2615       C  0.85038441  0.16503295  0.47099249    -0.20500
C2616       C  0.84457186  0.18632915  0.46478855    -0.13000
C2617       C  0.82874216  0.18989574  0.44844662     0.03600
C2618       C  0.81878312  0.17177454  0.43843988    -0.25200
H2619       H  0.81394631  0.09776628  0.43069649     0.08700
H2620       H  0.80303697  0.13491169  0.42108892     0.12300
H2621       H  0.85905141  0.12281411  0.47893328     0.12300
H2622       H  0.86265547  0.16271330  0.48359955     0.12000
H2623       H  0.85251870  0.20000407  0.47272369     0.12600
H2624       H  0.80671961  0.17423854  0.42564556     0.14500
C2625       C  0.92783979  0.91940012  0.48997893    -0.05500
C2626       C  0.94024143  0.93819026  0.49452920    -0.05400
C2627       C  0.93064112  0.95885160  0.49400783    -0.23600
C2628       C  0.90855533  0.96118609  0.48848608     0.18600
C2629       C  0.89587084  0.94245296  0.48369279     0.15800
C2630       C  0.90552423  0.92159481  0.48485515    -0.18600
C2631       C  0.87394992  0.94504111  0.47734552    -0.20500
C2632       C  0.86489130  0.96598091  0.47523046    -0.13000
C2633       C  0.87743137  0.98456938  0.48011778     0.03600
C2634       C  0.89912441  0.98201529  0.48711259    -0.25200
H2635       H  0.95738989  0.93687970  0.49876113     0.08700
H2636       H  0.94060216  0.97306719  0.49765090     0.12300
H2637       H  0.89586173  0.90716524  0.48123037     0.12300
H2638       H  0.86396167  0.93089694  0.47352722     0.12000
H2639       H  0.84812654  0.96769060  0.46977598     0.12600
H2640       H  0.90898995  0.99636681  0.49055272     0.14500
C2641       C  0.16979196  0.09901363  0.31945439    -0.05500
C2642       C  0.16487018  0.07904765  0.32970092    -0.05400
C2643       C  0.14319063  0.07330595  0.33408844    -0.23600
C2644       C  0.12606398  0.08764659  0.32871100     0.18600
C2645       C  0.13084539  0.10790071  0.31863476     0.15800
C2646       C  0.15264918  0.11334031  0.31382858    -0.18600
C2647       C  0.11374698  0.12242499  0.31370799    -0.20500
C2648       C  0.09212390  0.11699041  0.31877469    -0.13000
C2649       C  0.08712919  0.09685797  0.32873542     0.03600
C2650       C  0.10428498  0.08219172  0.33351752    -0.25200
H2651       H  0.17781259  0.06771848  0.33403021     0.08700
H2652       H  0.13983578  0.05771508  0.34183538     0.12300
H2653       H  0.15632458  0.12886623  0.30607353     0.12300
H2654       H  0.11711146  0.13808124  0.30610098     0.12000
H2655       H  0.07931531  0.12866366  0.31503066     0.12600
H2656       H  0.10077560  0.06665668  0.34132155     0.14500
C2657       C  0.96671903  0.07154942  0.37438956    -0.05500
C2658       C  0.94666554  0.07900055  0.36599183    -0.05400
C2659       C  0.92732719  0.07589237  0.37788142    -0.23600
C2660       C  0.92792653  0.06591870  0.39861752     0.18600
C2661       C  0.94820833  0.05899978  0.40736576     0.15800
C2662       C  0.96731001  0.06149561  0.39506263    -0.18600
C2663       C  0.94916542  0.04999092  0.42844310    -0.20500
C2664       C  0.93017457  0.04782576  0.44082507    -0.13000
C2665       C  0.90986224  0.05408300  0.43213732     0.03600
C2666       C  0.90874524  0.06300132  0.41093315    -0.25200
H2667       H  0.94595066  0.08700548  0.35018564     0.08700
H2668       H  0.91197568  0.08152256  0.37100303     0.12300
H2669       H  0.98282778  0.05621814  0.40190440     0.12300
H2670       H  0.96462661  0.04478628  0.43542057     0.12000
H2671       H  0.93128387  0.04088534  0.45711464     0.12600
H2672       H  0.89309246  0.06811415  0.40430529     0.14500
C2673       C  0.05149956  0.16052071  0.47084101    -0.05500
C2674       C  0.05711116  0.17260958  0.45215701    -0.05400
C2675       C  0.05429822  0.16360221  0.43130828    -0.23600
C2676       C  0.04650764  0.14213695  0.42897342     0.18600
C2677       C  0.04141801  0.12972989  0.44783739     0.15800
C2678       C  0.04352991  0.13915158  0.46857137    -0.18600
C2679       C  0.03455599  0.10799344  0.44570505    -0.20500
C2680       C  0.03265769  0.09859563  0.42503478    -0.13000
C2681       C  0.03707544  0.11091691  0.40616346     0.03600
C2682       C  0.04390171  0.13275534  0.40817913    -0.25200
H2683       H  0.06340585  0.18908506  0.45370661     0.08700
H2684       H  0.05844812  0.17329298  0.41706249     0.12300
H2685       H  0.03960625  0.12963168  0.48302572     0.12300
H2686       H  0.03073921  0.09824606  0.46001205     0.12000
H2687       H  0.02719870  0.08179430  0.42375437     0.12600
H2688       H  0.04748205  0.14225752  0.39363625     0.14500
C2689       C  0.84404798  0.09757483  0.82775571    -0.05500
C2690       C  0.84894316  0.08120742  0.84317273    -0.05400
C2691       C  0.87061693  0.07600786  0.84812163    -0.23600
C2692       C  0.88773685  0.08729986  0.83794259     0.18600
C2693       C  0.88301680  0.10371008  0.82232276     0.15800
C2694       C  0.86121815  0.10858859  0.81717278    -0.18600
C2695       C  0.90017136  0.11525263  0.81244536    -0.20500
C2696       C  0.92182110  0.11086260  0.81832721    -0.13000
C2697       C  0.92664176  0.09467091  0.83395430     0.03600
C2698       C  0.90948147  0.08274265  0.84347263    -0.25200
H2699       H  0.83600008  0.07242509  0.85144947     0.08700
H2700       H  0.87398164  0.06337707  0.86013082     0.12300
H2701       H  0.85764750  0.12132634  0.80532531     0.12300
H2702       H  0.89683291  0.12787816  0.80042489     0.12000
H2703       H  0.93478501  0.12017771  0.81068906     0.12600
H2704       H  0.91297867  0.07027287  0.85562489     0.14500
C2705       C  0.99184952  0.99453922  0.73621405    -0.05500
C2706       C  0.99100360  0.98293383  0.75605903    -0.05400
C2707       C  0.99239260  0.99388439  0.77603161    -0.23600
C2708       C  0.99491688  0.01665125  0.77655748     0.18600
C2709       C  0.99645692  0.02847849  0.75673261     0.15800
C2710       C  0.99474584  0.01737426  0.73666916    -0.18600
C2711       C  0.99932337  0.05123360  0.75736633    -0.20500
C2712       C  0.99991361  0.06223376  0.77741934    -0.13000
C2713       C  0.99753423  0.05070314  0.79720545     0.03600
C2714       C  0.99544469  0.02780019  0.79659398    -0.25200
H2715       H  0.98872811  0.96537156  0.75615705     0.08700
H2716       H  0.99124701  0.98455773  0.79107643     0.12300
H2717       H  0.99560860  0.02647891  0.72145979     0.12300
H2718       H  0.00069383  0.06057537  0.74235152     0.12000
H2719       H  0.00151555  0.07986906  0.77738789     0.12600
H2720       H  0.99372213  0.01864919  0.81169900     0.14500
C2721       C  0.18137404  0.11094459  0.95611629    -0.05500
C2722       C  0.19995606  0.11552891  0.94346297    -0.05400
C2723       C  0.20530581  0.13705115  0.93805093    -0.23600
C2724       C  0.19191482  0.15435744  0.94483824     0.18600
C2725       C  0.17320467  0.14997371  0.95764507     0.15800
C2726       C  0.16821155  0.12830552  0.96346697    -0.18600
C2727       C  0.15957630  0.16729670  0.96397414    -0.20500
C2728       C  0.16426927  0.18870973  0.95741191    -0.13000
C2729       C  0.18280262  0.19322867  0.94459916     0.03600
C2730       C  0.19669510  0.17591022  0.93860482    -0.25200
H2731       H  0.21036007  0.10241070  0.93770036     0.08700
H2732       H  0.21970461  0.14012241  0.92822295     0.12300
H2733       H  0.15370668  0.12489753  0.97304439     0.12300
H2734       H  0.14512687  0.16425376  0.97373642     0.12000
H2735       H  0.15330175  0.20172673  0.96228520     0.12600
H2736       H  0.21098502  0.17909239  0.92864087     0.14500
C2737       C  0.10802616  0.05814951  0.93376497    -0.05500
C2738       C  0.08821034  0.05279911  0.94396778    -0.05400
C2739       C  0.06851856  0.05469675  0.93263520    -0.23600
C2740       C  0.06831328  0.06246425  0.91107067     0.18600
C2741       C  0.08810475  0.06845329  0.90077754     0.15800
C2742       C  0.10795110  0.06587662  0.91209641    -0.18600
C2743       C  0.08759525  0.07711187  0.87947302    -0.20500
C2744       C  0.06762585  0.07983033  0.86852866    -0.13000
C2745       C  0.04805942  0.07330941  0.87852210     0.03600
C2746       C  0.04855040  0.06457739  0.89975790    -0.25200
H2747       H  0.08801085  0.04670553  0.96062467     0.08700
H2748       H  0.05345305  0.05019413  0.94076390     0.12300
H2749       H  0.12322510  0.07023151  0.90426674     0.12300
H2750       H  0.10257067  0.08197913  0.87140131     0.12000
H2751       H  0.06746597  0.08676719  0.85221143     0.12600
H2752       H  0.03340745  0.05999819  0.90774117     0.14500
C2753       C  0.06932315  0.85111626  0.92432204    -0.05500
C2754       C  0.08317463  0.83344277  0.91945122    -0.05400
C2755       C  0.08733678  0.82765019  0.89774507    -0.23600
C2756       C  0.07797765  0.83964520  0.88051708     0.18600
C2757       C  0.06413900  0.85754125  0.88523067     0.15800
C2758       C  0.05973891  0.86302507  0.90706812    -0.18600
C2759       C  0.05513961  0.86981445  0.86802074    -0.20500
C2760       C  0.06003479  0.86460589  0.84632758    -0.13000
C2761       C  0.07380730  0.84686753  0.84141622     0.03600
C2762       C  0.08252798  0.83428411  0.85867430    -0.25200
H2763       H  0.09062692  0.82393843  0.93245395     0.08700
H2764       H  0.09800983  0.81389611  0.89443635     0.12300
H2765       H  0.04913478  0.87678395  0.91062028     0.12300
H2766       H  0.04453662  0.88362019  0.87133974     0.12000
H2767       H  0.05312513  0.87457699  0.83337816     0.12600
H2768       H  0.09332975  0.82067171  0.85516440     0.14500
C2769       C  0.08885836  0.92399044  0.98328816    -0.05500
C2770       C  0.07784268  0.94267950  0.99076198    -0.05400
C2771       C  0.08846017  0.96281530  0.99165092    -0.23600
C2772       C  0.11012383  0.96470314  0.98452939     0.18600
C2773       C  0.12133796  0.94604545  0.97672160     0.15800
C2774       C  0.11075515  0.92564988  0.97658597    -0.18600
C2775       C  0.14272229  0.94827322  0.96873044    -0.20500
C2776       C  0.15264381  0.96888060  0.96796387    -0.13000
C2777       C  0.14160677  0.98739979  0.97584539     0.03600
C2778       C  0.12049815  0.98510220  0.98449324    -0.25200
H2779       H  0.06105789  0.94160959  0.99629769     0.08700
H2780       H  0.07963068  0.97696331  0.99761478     0.12300
H2781       H  0.11928364  0.91125035  0.97076185     0.12300
H2782       H  0.15153996  0.93420497  0.96257675     0.12000
H2783       H  0.16890176  0.97038561  0.96113879     0.12600
H2784       H  0.11172270  0.99940594  0.99021048     0.14500
C2785       C  0.08967900  0.96348875  0.18181325    -0.05500
C2786       C  0.10519327  0.97503242  0.16937398    -0.05400
C2787       C  0.12754819  0.97145429  0.17235578    -0.23600
C2788       C  0.13492565  0.95642030  0.18803504     0.18600
C2789       C  0.11956973  0.94504247  0.20103263     0.15800
C2790       C  0.09702130  0.94850534  0.19773248    -0.18600
C2791       C  0.12707449  0.93029590  0.21697660    -0.20500
C2792       C  0.14950514  0.92660531  0.21976237    -0.13000
C2793       C  0.16490681  0.93745273  0.20655789     0.03600
C2794       C  0.15740821  0.95249037  0.19078797    -0.25200
H2795       H  0.10003113  0.98658545  0.15693446     0.08700
H2796       H  0.13906929  0.98037303  0.16228813     0.12300
H2797       H  0.08524710  0.93960185  0.20752634     0.12300
H2798       H  0.11559939  0.92150270  0.22720258     0.12000
H2799       H  0.15477402  0.91496344  0.23206903     0.12600
H2800       H  0.16904574  0.96111643  0.18058882     0.14500
C2801       C  0.01591272  0.00213857  0.22554799    -0.05500
C2802       C  0.01616163  0.98929571  0.24466152    -0.05400
C2803       C  0.01503156  0.99899869  0.26525391    -0.23600
C2804       C  0.01348032  0.02175610  0.26716549     0.18600
C2805       C  0.01212153  0.03482932  0.24810516     0.15800
C2806       C  0.01342439  0.02494943  0.22737864    -0.18600
C2807       C  0.01016671  0.05759461  0.25016663    -0.20500
C2808       C  0.01072737  0.06736005  0.27084934    -0.13000
C2809       C  0.01333685  0.05454239  0.28981644     0.03600
C2810       C  0.01405091  0.03165835  0.28783055    -0.25200
H2811       H  0.01794721  0.97169655  0.24374828     0.08700
H2812       H  0.01589715  0.98872401  0.27969305     0.12300
H2813       H  0.01290920  0.03500375  0.21276281     0.12300
H2814       H  0.00883967  0.06788820  0.23577777     0.12000
H2815       H  0.00998757  0.08502224  0.27191844     0.12600
H2816       H  0.01574754  0.02154762  0.30232488     0.14500
C2817       C  0.03438027  0.94196497  0.11006212    -0.05500
C2818       C  0.02853922  0.95295656  0.09073688    -0.05400
C2819       C  0.02921382  0.94219927  0.07064364    -0.23600
C2820       C  0.03622870  0.92039993  0.06949021     0.18600
C2821       C  0.04272301  0.90930500  0.08874517     0.15800
C2822       C  0.04140774  0.92006165  0.10899727    -0.18600
C2823       C  0.05063405  0.88776669  0.08731316    -0.20500
C2824       C  0.05234950  0.87746031  0.06693755    -0.13000
C2825       C  0.04550180  0.88828745  0.04784729     0.03600
C2826       C  0.03724057  0.90968218  0.04930180    -0.25200
H2827       H  0.02289168  0.96974937  0.09124770     0.08700
H2828       H  0.02432781  0.95095350  0.05599879     0.12300
H2829       H  0.04607675  0.91153117  0.12385366     0.12300
H2830       H  0.05584701  0.87906273  0.10187115     0.12000
H2831       H  0.05897690  0.86104856  0.06607454     0.12600
H2832       H  0.03243517  0.91833986  0.03455159     0.14500
C2833       C  0.82948997  0.93929968  0.07562190    -0.05500
C2834       C  0.84183229  0.92428736  0.06333216    -0.05400
C2835       C  0.83913467  0.90183407  0.06616889    -0.23600
C2836       C  0.82387153  0.89389289  0.08121253     0.18600
C2837       C  0.81117904  0.90877562  0.09354036     0.15800
C2838       C  0.81418960  0.93140916  0.09081483    -0.18600
C2839       C  0.79568650  0.90072865  0.10834645    -0.20500
C2840       C  0.79287517  0.87819728  0.11097053    -0.13000
C2841       C  0.80564324  0.86327372  0.09900414     0.03600
C2842       C  0.82113794  0.87129918  0.08411526    -0.25200
H2843       H  0.85384553  0.92989960  0.05161097     0.08700
H2844       H  0.84898760  0.89068550  0.05657447     0.12300
H2845       H  0.80453183  0.94281226  0.10032183     0.12300
H2846       H  0.78576921  0.91184024  0.11791511     0.12000
H2847       H  0.78088796  0.87245427  0.12265212     0.12600
H2848       H  0.83102684  0.85998868  0.07473253     0.14500
C2849       C  0.96365442  0.98047324  0.14739225    -0.05500
C2850       C  0.94592740  0.96865887  0.15593618    -0.05400
C2851       C  0.92509297  0.97058790  0.14650704    -0.23600
C2852       C  0.92181477  0.98390948  0.12802906     0.18600
C2853       C  0.93964052  0.99571454  0.11928645     0.15800
C2854       C  0.96023429  0.99422753  0.12922771    -0.18600
C2855       C  0.93676914  0.00839038  0.10036150    -0.20500
C2856       C  0.91650665  0.00902987  0.08987909    -0.13000
C2857       C  0.89865705  0.99753317  0.09847339     0.03600
C2858       C  0.90122447  0.98528145  0.11779782    -0.25200
H2859       H  0.94819042  0.95792487  0.16987460     0.08700
H2860       H  0.91166527  0.96132847  0.15337888     0.12300
H2861       H  0.97383106  0.00318547  0.12224783     0.12300
H2862       H  0.95028374  0.01750785  0.09345862     0.12000
H2863       H  0.91466216  0.01875649  0.07514568     0.12600
H2864       H  0.88743123  0.97634640  0.12440308     0.14500
C2865       C  0.92989735  0.20205669  0.09675594    -0.05500
C2866       C  0.91441314  0.21834236  0.10154122    -0.05400
C2867       C  0.91013379  0.22422878  0.12320766    -0.23600
C2868       C  0.92105881  0.21372343  0.14049051     0.18600
C2869       C  0.93649441  0.19716083  0.13586831     0.15800
C2870       C  0.94093717  0.19156915  0.11407363    -0.18600
C2871       C  0.94713907  0.18637033  0.15312917    -0.20500
C2872       C  0.94250011  0.19188309  0.17479588    -0.13000
C2873       C  0.92730003  0.20844463  0.17962450     0.03600
C2874       C  0.91669124  0.21937809  0.16230483    -0.25200
H2875       H  0.90575884  0.22670658  0.08850164     0.08700
H2876       H  0.89821634  0.23693597  0.12644547     0.12300
H2877       H  0.95280034  0.17885215  0.11062168     0.12300
H2878       H  0.95898001  0.17359158  0.14988058     0.12000
H2879       H  0.95092282  0.18322341  0.18779523     0.12600
H2880       H  0.90482026  0.23207805  0.16577455     0.14500
C2881       C  0.97741552  0.11490256  0.91028853    -0.05500
C2882       C  0.98322776  0.10392098  0.92963272    -0.05400
C2883       C  0.98005276  0.11369207  0.94994426    -0.23600
C2884       C  0.97045900  0.13444071  0.95133302     0.18600
C2885       C  0.96423114  0.14565151  0.93203794     0.15800
C2886       C  0.96817924  0.13596812  0.91150744    -0.18600
C2887       C  0.95378303  0.16607725  0.93375523    -0.20500
C2888       C  0.94937952  0.17511934  0.95437342    -0.13000
C2889       C  0.95593866  0.16416660  0.97351386     0.03600
C2890       C  0.96664065  0.14391814  0.97179959    -0.25200
H2891       H  0.99046673  0.08774947  0.92900476     0.08700
H2892       H  0.98481534  0.10487036  0.96459508     0.12300
H2893       H  0.96346057  0.14441808  0.89662011     0.12300
H2894       H  0.94875014  0.17488823  0.91919541     0.12000
H2895       H  0.94109156  0.19074746  0.95537539     0.12600
H2896       H  0.97143520  0.13517989  0.98651071     0.14500
C2897       C  0.86112444  0.06520685  0.05945339    -0.05500
C2898       C  0.85119443  0.08390719  0.06825149    -0.05400
C2899       C  0.86120425  0.10439858  0.06591416    -0.23600
C2900       C  0.88150435  0.10622870  0.05530767     0.18600
C2901       C  0.89175265  0.08726224  0.04702382     0.15800
C2902       C  0.88137122  0.06707947  0.04885710    -0.18600
C2903       C  0.91238759  0.08865245  0.03723756    -0.20500
C2904       C  0.92288699  0.10875475  0.03560465    -0.13000
C2905       C  0.91265999  0.12777587  0.04321513     0.03600
C2906       C  0.89190783  0.12654335  0.05297008    -0.25200
H2907       H  0.83567514  0.08269107  0.07665358     0.08700
H2908       H  0.85321031  0.11873928  0.07255522     0.12300
H2909       H  0.88942453  0.05261128  0.04250048     0.12300
H2910       H  0.92044586  0.07417961  0.03094960     0.12000
H2911       H  0.93882676  0.10955156  0.02794415     0.12600
H2912       H  0.88412993  0.14127249  0.05903339     0.14500
C2913       C  0.68259051  0.93973001  0.93776546    -0.05500
C2914       C  0.70042178  0.93528975  0.92405453    -0.05400
C2915       C  0.70666002  0.91372020  0.91989866    -0.23600
C2916       C  0.69493294  0.89632996  0.92915313     0.18600
C2917       C  0.67673572  0.90072081  0.94266860     0.15800
C2918       C  0.67079845  0.92236123  0.94700854    -0.18600
C2919       C  0.66472922  0.88340581  0.95159603    -0.20500
C2920       C  0.67074825  0.86185918  0.94726426    -0.13000
C2921       C  0.68894662  0.85726697  0.93403064     0.03600
C2922       C  0.70099966  0.87463714  0.92502684    -0.25200
H2923       H  0.70971561  0.94850448  0.91681009     0.08700
H2924       H  0.72060569  0.91064261  0.90944118     0.12300
H2925       H  0.65682798  0.92568537  0.95738627     0.12300
H2926       H  0.65065946  0.88652139  0.96188078     0.12000
H2927       H  0.66111027  0.84878066  0.95429488     0.12600
H2928       H  0.71494555  0.87131808  0.91462938     0.14500
C2929       C  0.72144874  0.01148579  0.98059362    -0.05500
C2930       C  0.74085042  0.01188292  0.96830697    -0.05400
C2931       C  0.76121151  0.01232395  0.97875215    -0.23600
C2932       C  0.76250119  0.01253496  0.00166077     0.18600
C2933       C  0.74305548  0.01315478  0.01410142     0.15800
C2934       C  0.72270163  0.01257856  0.00351467    -0.18600
C2935       C  0.74426835  0.01373399  0.03696946    -0.20500
C2936       C  0.76452824  0.01290631  0.04748661    -0.13000
C2937       C  0.78397831  0.01136453  0.03535472     0.03600
C2938       C  0.78284164  0.01159152  0.01235699    -0.25200
H2939       H  0.74031080  0.01106174  0.95061948     0.08700
H2940       H  0.77593432  0.01201575  0.96892770     0.12300
H2941       H  0.70783920  0.01252551  0.01315174     0.12300
H2942       H  0.72952510  0.01439688  0.04674788     0.12000
H2943       H  0.76490620  0.01289192  0.06519611     0.12600
H2944       H  0.79771609  0.01067155  0.00278919     0.14500
C2945       C  0.55956809  0.18489255  0.91992149    -0.05500
C2946       C  0.54714422  0.17285508  0.90476487    -0.05400
C2947       C  0.55084994  0.17497227  0.88232379    -0.23600
C2948       C  0.56693964  0.18929949  0.87458576     0.18600
C2949       C  0.57937513  0.20166279  0.88965274     0.15800
C2950       C  0.57571238  0.19929168  0.91218768    -0.18600
C2951       C  0.59523911  0.21624061  0.88192163    -0.20500
C2952       C  0.59868390  0.21864459  0.85947928    -0.13000
C2953       C  0.58653295  0.20632280  0.84434567     0.03600
C2954       C  0.57073135  0.19155006  0.85204786    -0.25200
H2955       H  0.53467063  0.16157040  0.91025693     0.08700
H2956       H  0.54112307  0.16540146  0.87102639     0.12300
H2957       H  0.58538339  0.20871711  0.92366746     0.12300
H2958       H  0.60492237  0.22585458  0.89322086     0.12000
H2959       H  0.61103811  0.23005209  0.85396063     0.12600
H2960       H  0.56117304  0.18206338  0.84052293     0.14500
C2961       C  0.63984354  0.06090915  0.96217758    -0.05500
C2962       C  0.64694020  0.07970764  0.95106659    -0.05400
C2963       C  0.63569139  0.09947873  0.95346092    -0.23600
C2964       C  0.61688162  0.10050891  0.96652723     0.18600
C2965       C  0.60962570  0.08158311  0.97765126     0.15800
C2966       C  0.62137957  0.06209580  0.97574197    -0.18600
C2967       C  0.59034864  0.08224538  0.98999221    -0.20500
C2968       C  0.57811989  0.10145866  0.99103611    -0.13000
C2969       C  0.58534835  0.12035135  0.98027502     0.03600
C2970       C  0.60488125  0.11995027  0.96828314    -0.25200
H2971       H  0.66106919  0.07906388  0.94043912     0.08700
H2972       H  0.64138845  0.11380454  0.94471895     0.12300
H2973       H  0.61552654  0.04756969  0.98407158     0.12300
H2974       H  0.58456228  0.06783120  0.99853205     0.12000
H2975       H  0.56315917  0.10168567  0.00049156     0.12600
H2976       H  0.61033310  0.13456999  0.95984116     0.14500
C2977       C  0.67599516  0.09236967  0.19894961    -0.05500
C2978       C  0.67163082  0.07372242  0.18630932    -0.05400
C2979       C  0.65011621  0.06827101  0.18078084    -0.23600
C2980       C  0.63269420  0.08158292  0.18754456     0.18600
C2981       C  0.63701440  0.10048836  0.20006994     0.15800
C2982       C  0.65856009  0.10564651  0.20581211    -0.18600
C2983       C  0.61973620  0.11403552  0.20655826    -0.20500
C2984       C  0.59830045  0.10893628  0.20069375    -0.13000
C2985       C  0.59372299  0.09014078  0.18831721     0.03600
C2986       C  0.61106548  0.07645786  0.18184643    -0.25200
H2987       H  0.68483830  0.06324573  0.18089936     0.08700
H2988       H  0.64711669  0.05372989  0.17113812     0.12300
H2989       H  0.66178031  0.12021637  0.21536614     0.12300
H2990       H  0.62280703  0.12864221  0.21608235     0.12000
H2991       H  0.58529692  0.11980521  0.20581221     0.12600
H2992       H  0.60780318  0.06197758  0.17218350     0.14500
C2993       C  0.54336276  0.16114917  0.04784168    -0.05500
C2994       C  0.52494095  0.16696298  0.06015195    -0.05400
C2995       C  0.52135521  0.15743713  0.08066077    -0.23600
C2996       C  0.53567737  0.14130082  0.08861600     0.18600
C2997       C  0.55426766  0.13544895  0.07615990     0.15800
C2998       C  0.55826552  0.14583364  0.05613388    -0.18600
C2999       C  0.56797190  0.11854874  0.08338428    -0.20500
C3000       C  0.56304921  0.10713241  0.10249955    -0.13000
C3001       C  0.54471589  0.11282668  0.11504491     0.03600
C3002       C  0.53128959  0.13024476  0.10828929    -0.25200
H3003       H  0.51313353  0.17850606  0.05366200     0.08700
H3004       H  0.50693572  0.16201320  0.08986405     0.12300
H3005       H  0.57215123  0.14091799  0.04626086     0.12300
H3006       H  0.58218301  0.11377826  0.07395287     0.12000
H3007       H  0.57364742  0.09383705  0.10755966     0.12600
H3008       H  0.51697564  0.13452176  0.11781911     0.14500
C3009       C  0.42124726  0.94431985  0.83305096    -0.05500
C3010       C  0.41515423  0.92821645  0.81786582    -0.05400
C3011       C  0.39303590  0.92426826  0.81341581    -0.23600
C3012       C  0.37670840  0.93624605  0.82422767     0.18600
C3013       C  0.38273676  0.95194788  0.84002455     0.15800
C3014       C  0.40486770  0.95590788  0.84425182    -0.18600
C3015       C  0.36654729  0.96364734  0.85121777    -0.20500
C3016       C  0.34450310  0.96019336  0.84648792    -0.13000
C3017       C  0.33825941  0.94512045  0.83035367     0.03600
C3018       C  0.35448997  0.93299215  0.81941417    -0.25200
H3019       H  0.42747477  0.91897434  0.80915365     0.08700
H3020       H  0.38871009  0.91201781  0.80138614     0.12300
H3021       H  0.40932002  0.96811362  0.85629763     0.12300
H3022       H  0.37094009  0.97561882  0.86350430     0.12000
H3023       H  0.33233559  0.96960960  0.85522949     0.12600
H3024       H  0.34985767  0.92104593  0.80718065     0.14500
C3025       C  0.54451903  0.97079866  0.86873319    -0.05500
C3026       C  0.56387943  0.96464665  0.85815069    -0.05400
C3027       C  0.58416958  0.96834893  0.86814106    -0.23600
C3028       C  0.58527863  0.97764303  0.88911630     0.18600
C3029       C  0.56575077  0.98320740  0.90011467     0.15800
C3030       C  0.54558491  0.98010177  0.88971218    -0.18600
C3031       C  0.56667696  0.99157363  0.92143250    -0.20500
C3032       C  0.58682297  0.99451779  0.93176736    -0.13000
C3033       C  0.60634682  0.98966599  0.92076813     0.03600
C3034       C  0.60551337  0.98129108  0.89938758    -0.25200
H3035       H  0.56330434  0.95727604  0.84206637     0.08700
H3036       H  0.59895701  0.96377804  0.85956947     0.12300
H3037       H  0.53062746  0.98439689  0.89818719     0.12300
H3038       H  0.55183694  0.99574347  0.93013229     0.12000
H3039       H  0.58718843  0.00103499  0.94823410     0.12600
H3040       H  0.62055772  0.97726414  0.89096197     0.14500
C3041       C  0.32252846  0.18841064  0.07934855    -0.05500
C3042       C  0.33821986  0.18443461  0.06304756    -0.05400
C3043       C  0.34387330  0.16306517  0.05720286    -0.23600
C3044       C  0.33421126  0.14516185  0.06777202     0.18600
C3045       C  0.31827362  0.14887126  0.08406484     0.15800
C3046       C  0.31233779  0.17044355  0.08956817    -0.18600
C3047       C  0.30892815  0.13093462  0.09489893    -0.20500
C3048       C  0.31560896  0.10959708  0.08996366    -0.13000
C3049       C  0.33158697  0.10568951  0.07389754     0.03600
C3050       C  0.34058220  0.12365193  0.06263973    -0.25200
H3051       H  0.34624712  0.19791007  0.05483312     0.08700
H3052       H  0.35610754  0.16055361  0.04465891     0.12300
H3053       H  0.30031245  0.17322647  0.10226710     0.12300
H3054       H  0.29668025  0.13341534  0.10743700     0.12000
H3055       H  0.30828879  0.09612132  0.09881900     0.12600
H3056       H  0.35295639  0.12095934  0.05026289     0.14500
C3057       C  0.29787642  0.03500698  0.02655526    -0.05500
C3058       C  0.29830168  0.03647501  0.00360549    -0.05400
C3059       C  0.27887598  0.03677759  0.99157888    -0.23600
C3060       C  0.25868143  0.03594458  0.00232165     0.18600
C3061       C  0.25806757  0.03399277  0.02535687     0.15800
C3062       C  0.27765553  0.03320669  0.03728826    -0.18600
C3063       C  0.23786868  0.03367098  0.03613662    -0.20500
C3064       C  0.21846135  0.03591680  0.02426322    -0.13000
C3065       C  0.21891526  0.03813108  0.00138897     0.03600
C3066       C  0.23911146  0.03771873  0.99047594    -0.25200
H3067       H  0.31367060  0.03781956  0.99494643     0.08700
H3068       H  0.27964303  0.03826081  0.97392819     0.12300
H3069       H  0.27709503  0.03222072  0.05498813     0.12300
H3070       H  0.23709739  0.03217563  0.05378468     0.12000
H3071       H  0.20307820  0.03603360  0.03299995     0.12600
H3072       H  0.23966072  0.03955373  0.97283903     0.14500
C3073       C  0.40796768  0.05218115  0.09559485    -0.05500
C3074       C  0.42680294  0.04402805  0.08541255    -0.05400
C3075       C  0.44696292  0.04498796  0.09590562    -0.23600
C3076       C  0.44868325  0.05465253  0.11654825     0.18600
C3077       C  0.42985518  0.06317657  0.12692407     0.15800
C3078       C  0.40940676  0.06147731  0.11652387    -0.18600
C3079       C  0.43198597  0.07362324  0.14723758    -0.20500
C3080       C  0.45262613  0.07591725  0.15691353    -0.13000
C3081       C  0.47129200  0.06729631  0.14667924     0.03600
C3082       C  0.46910220  0.05639441  0.12665984    -0.25200
H3083       H  0.42584071  0.03661863  0.06934785     0.08700
H3084       H  0.46124886  0.03846684  0.08773914     0.12300
H3085       H  0.39484954  0.06789465  0.12430617     0.12300
H3086       H  0.41780683  0.08037306  0.15539764     0.12000
H3087       H  0.45401524  0.08444843  0.17236373     0.12600
H3088       H  0.48345701  0.05001156  0.11847362     0.14500
C3089       C  0.44446044  0.84351418  0.09485107    -0.05500
C3090       C  0.42908463  0.82711208  0.09957601    -0.05400
C3091       C  0.42411810  0.82169713  0.12120527    -0.23600
C3092       C  0.43416685  0.83285579  0.13851113     0.18600
C3093       C  0.44973849  0.84930815  0.13395000     0.15800
C3094       C  0.45499709  0.85433072  0.11217012    -0.18600
C3095       C  0.45941559  0.86080494  0.15124543    -0.20500
C3096       C  0.45336303  0.85640902  0.17283343    -0.13000
C3097       C  0.43778904  0.84019826  0.17755419     0.03600
C3098       C  0.42851518  0.82820820  0.16026985    -0.25200
H3099       H  0.42087517  0.81843174  0.08650596     0.08700
H3100       H  0.41215227  0.80903669  0.12438632     0.12300
H3101       H  0.46679287  0.86709074  0.10871178     0.12300
H3102       H  0.47138046  0.87346413  0.14806186     0.12000
H3103       H  0.46083787  0.86577519  0.18586402     0.12600
H3104       H  0.41639060  0.81574745  0.16368220     0.14500
C3105       C  0.47870337  0.92872225  0.90528316    -0.05500
C3106       C  0.48721068  0.93969618  0.92351954    -0.05400
C3107       C  0.48744171  0.92964182  0.94399263    -0.23600
C3108       C  0.47857448  0.90869911  0.94662887     0.18600
C3109       C  0.46967441  0.89759330  0.92839551     0.15800
C3110       C  0.47022919  0.90752170  0.90767653    -0.18600
C3111       C  0.45993132  0.87703588  0.93136606    -0.20500
C3112       C  0.45844213  0.86790880  0.95231724    -0.13000
C3113       C  0.46732756  0.87887989  0.97042416     0.03600
C3114       C  0.47781448  0.89903118  0.96736663    -0.25200
H3115       H  0.49408370  0.95593065  0.92181232     0.08700
H3116       H  0.49425027  0.93837682  0.95782323     0.12300
H3117       H  0.46360010  0.89907019  0.89356834     0.12300
H3118       H  0.45293792  0.86832533  0.91761368     0.12000
H3119       H  0.45022100  0.85237188  0.95442187     0.12600
H3120       H  0.48435305  0.90776144  0.98135042     0.14500
C3121       C  0.37648479  0.98347991  0.05171500    -0.05500
C3122       C  0.36424145  0.96455098  0.05600224    -0.05400
C3123       C  0.37360783  0.94378388  0.05351660    -0.23600
C3124       C  0.39560013  0.94159810  0.04734171     0.18600
C3125       C  0.40821834  0.96060052  0.04358098     0.15800
C3126       C  0.39848403  0.98137462  0.04539791    -0.18600
C3127       C  0.43042506  0.95850284  0.03832822    -0.20500
C3128       C  0.44004120  0.93780879  0.03673441    -0.13000
C3129       C  0.42757598  0.91875915  0.03989914     0.03600
C3130       C  0.40526128  0.92078989  0.04510804    -0.25200
H3131       H  0.34732392  0.96584531  0.06103527     0.08700
H3132       H  0.36371448  0.92943678  0.05666021     0.12300
H3133       H  0.40817584  0.99593738  0.04251848     0.12300
H3134       H  0.44039850  0.97287687  0.03555927     0.12000
H3135       H  0.45722719  0.93668779  0.03263766     0.12600
H3136       H  0.39555058  0.90621960  0.04781995     0.14500
C3137       C  0.68588856  0.19511728  0.58027676    -0.05500
C3138       C  0.67049863  0.19016763  0.56392405    -0.05400
C3139       C  0.66644125  0.16843329  0.55805450    -0.23600
C3140       C  0.67755363  0.15127912  0.56859990     0.18600
C3141       C  0.69316075  0.15610798  0.58494016     0.15800
C3142       C  0.69734702  0.17791718  0.59051401    -0.18600
C3143       C  0.70405038  0.13903173  0.59577373    -0.20500
C3144       C  0.69921582  0.11730009  0.59078231    -0.13000
C3145       C  0.68363838  0.11224804  0.57465978     0.03600
C3146       C  0.67304611  0.12938352  0.56340416    -0.25200
H3147       H  0.66150337  0.20308801  0.55574196     0.08700
H3148       H  0.65441169  0.16503243  0.54548734     0.12300
H3149       H  0.70923013  0.18142438  0.60320252     0.12300
H3150       H  0.71607566  0.14247635  0.60833503     0.12000
H3151       H  0.70765945  0.10441987  0.59959803     0.12600
H3152       H  0.66089225  0.12570701  0.55102413     0.14500
C3153       C  0.72318996  0.03922240  0.53065276    -0.05500
C3154       C  0.72278953  0.03565117  0.50796702    -0.05400
C3155       C  0.74221020  0.03345834  0.49626483    -0.23600
C3156       C  0.76238713  0.03523547  0.50698889     0.18600
C3157       C  0.76302624  0.03835787  0.52988495     0.15800
C3158       C  0.74339726  0.03998741  0.54164373    -0.18600
C3159       C  0.78327118  0.04059952  0.54046073    -0.20500
C3160       C  0.80263736  0.04064428  0.52833648    -0.13000
C3161       C  0.80209743  0.03808626  0.50548770     0.03600
C3162       C  0.78188419  0.03479428  0.49502824    -0.25200
H3163       H  0.70740460  0.03473779  0.49921099     0.08700
H3164       H  0.74144404  0.03098018  0.47873375     0.12300
H3165       H  0.74386538  0.04278749  0.55914474     0.12300
H3166       H  0.78409143  0.04294994  0.55800643     0.12000
H3167       H  0.81800904  0.04306759  0.53680816     0.12600
H3168       H  0.78119327  0.03283439  0.47741954     0.14500
C3169       C  0.41932277  0.07896603  0.67386723    -0.05500
C3170       C  0.40391243  0.06496749  0.66410178    -0.05400
C3171       C  0.38153797  0.06870282  0.66658254    -0.23600
C3172       C  0.37412831  0.08638739  0.67906478     0.18600
C3173       C  0.38944361  0.10051416  0.68907700     0.15800
C3174       C  0.41191850  0.09683173  0.68626658    -0.18600
C3175       C  0.38200871  0.11795453  0.70192236    -0.20500
C3176       C  0.35962474  0.12117126  0.70508104    -0.13000
C3177       C  0.34430176  0.10726961  0.69511837     0.03600
C3178       C  0.35166519  0.09002458  0.68190929    -0.25200
H3179       H  0.40914160  0.05114434  0.65437247     0.08700
H3180       H  0.37003775  0.05768466  0.65883754     0.12300
H3181       H  0.42360142  0.10773275  0.69391771     0.12300
H3182       H  0.39349364  0.12896154  0.70970238     0.12000
H3183       H  0.35426568  0.13467284  0.71519043     0.12600
H3184       H  0.33993806  0.07914675  0.67427992     0.14500
C3185       C  0.49072126  0.98796969  0.78853356    -0.05500
C3186       C  0.49492000  0.97528162  0.76982157    -0.05400
C3187       C  0.49532074  0.98485514  0.74905344    -0.23600
C3188       C  0.49165830  0.00734405  0.74657336     0.18600
C3189       C  0.48805956  0.02037945  0.76531280     0.15800
C3190       C  0.48754663  0.01062812  0.78612892    -0.18600
C3191       C  0.48476419  0.04292778  0.76289250    -0.20500
C3192       C  0.48475413  0.05244001  0.74210988    -0.13000
C3193       C  0.48778949  0.03957611  0.72331137     0.03600
C3194       C  0.49132524  0.01698117  0.72567988    -0.25200
H3195       H  0.49747389  0.95780210  0.77115674     0.08700
H3196       H  0.49825970  0.97461756  0.73491268     0.12300
H3197       H  0.48443507  0.02065355  0.80039413     0.12300
H3198       H  0.48204373  0.05319467  0.77705679     0.12000
H3199       H  0.48191989  0.06987706  0.74072511     0.12600
H3200       H  0.49385523  0.00693502  0.71131232     0.14500
C3201       C  0.54568419  0.06081868  0.64638954    -0.05500
C3202       C  0.56453719  0.06106343  0.65944476    -0.05400
C3203       C  0.58523052  0.05972968  0.64969113    -0.23600
C3204       C  0.58720208  0.05882041  0.62678595     0.18600
C3205       C  0.56812017  0.05910128  0.61369327     0.15800
C3206       C  0.54756736  0.05973033  0.62359238    -0.18600
C3207       C  0.56983567  0.05893455  0.59088040    -0.20500
C3208       C  0.59030872  0.05832812  0.58099067    -0.13000
C3209       C  0.60947292  0.05756553  0.59370769     0.03600
C3210       C  0.60781362  0.05778180  0.61668565    -0.25200
H3211       H  0.56321804  0.06201702  0.67707751     0.08700
H3212       H  0.59966042  0.05964019  0.66000610     0.12300
H3213       H  0.53292012  0.05991604  0.61352399     0.12300
H3214       H  0.55532503  0.05927675  0.58066603     0.12000
H3215       H  0.59109990  0.05802147  0.56329822     0.12600
H3216       H  0.62248764  0.05728410  0.62665514     0.14500
C3217       C  0.32294867  0.94209623  0.44732476    -0.05500
C3218       C  0.30740013  0.93784324  0.43089992    -0.05400
C3219       C  0.30195299  0.91637363  0.42530183    -0.23600
C3220       C  0.31218076  0.89869211  0.43579540     0.18600
C3221       C  0.32756905  0.90272348  0.45259253     0.15800
C3222       C  0.33265857  0.92436599  0.45843267    -0.18600
C3223       C  0.33803057  0.88503792  0.46285665    -0.20500
C3224       C  0.33376303  0.86361472  0.45613011    -0.13000
C3225       C  0.31873179  0.85939772  0.43920342     0.03600
C3226       C  0.30768092  0.87708784  0.42938528    -0.25200
H3227       H  0.29952416  0.95116072  0.42221683     0.08700
H3228       H  0.29006000  0.91361009  0.41244434     0.12300
H3229       H  0.34469562  0.92737442  0.47111063     0.12300
H3230       H  0.34981966  0.88778587  0.47581495     0.12000
H3231       H  0.34234085  0.85031542  0.46415091     0.12600
H3232       H  0.29604053  0.87411467  0.41633587     0.14500
C3233       C  0.22233840  0.01421140  0.54703231    -0.05500
C3234       C  0.24185731  0.01588437  0.55910344    -0.05400
C3235       C  0.26209670  0.01631451  0.54847538    -0.23600
C3236       C  0.26315975  0.01522070  0.52557673     0.18600
C3237       C  0.24358532  0.01443968  0.51327890     0.15800
C3238       C  0.22336600  0.01389889  0.52405244    -0.18600
C3239       C  0.24454839  0.01367517  0.49039440    -0.20500
C3240       C  0.26472153  0.01311417  0.47976417    -0.13000
C3241       C  0.28432206  0.01308267  0.49180354     0.03600
C3242       C  0.28341571  0.01441509  0.51477444    -0.25200
H3243       H  0.24153477  0.01610531  0.57681332     0.08700
H3244       H  0.27691887  0.01706189  0.55818115     0.12300
H3245       H  0.20844459  0.01276180  0.51452140     0.12300
H3246       H  0.22969534  0.01315635  0.48071783     0.12000
H3247       H  0.26495865  0.01203672  0.46208535     0.12600
H3248       H  0.29842516  0.01456543  0.52423576     0.14500
C3249       C  0.43293859  0.20036278  0.34032685    -0.05500
C3250       C  0.44710123  0.18258639  0.34397518    -0.05400
C3251       C  0.45396104  0.17726669  0.36511588    -0.23600
C3252       C  0.44666457  0.18954470  0.38299619     0.18600
C3253       C  0.43217989  0.20726147  0.37955909     0.15800
C3254       C  0.42549200  0.21261222  0.35826628    -0.18600
C3255       C  0.42456951  0.21928771  0.39749251    -0.20500
C3256       C  0.43112782  0.21371132  0.41867393    -0.13000
C3257       C  0.44563708  0.19622407  0.42223881     0.03600
C3258       C  0.45346224  0.18427998  0.40427041    -0.25200
H3259       H  0.45310373  0.17289916  0.33044422     0.08700
H3260       H  0.46498324  0.16356828  0.36747274     0.12300
H3261       H  0.41447518  0.22628766  0.35570072     0.12300
H3262       H  0.41341957  0.23288478  0.39515719     0.12000
H3263       H  0.42485415  0.22310528  0.43229006     0.12600
H3264       H  0.46442583  0.17056341  0.40686899     0.14500
C3265       C  0.47988000  0.09820933  0.60565887    -0.05500
C3266       C  0.48511408  0.08664668  0.58655047    -0.05400
C3267       C  0.48538544  0.09727314  0.56629441    -0.23600
C3268       C  0.47998025  0.11952674  0.56479998     0.18600
C3269       C  0.47442822  0.13122331  0.58392942     0.15800
C3270       C  0.47473479  0.12057088  0.60425392    -0.18600
C3271       C  0.46824776  0.15326680  0.58235502    -0.20500
C3272       C  0.46698868  0.16347517  0.56192947    -0.13000
C3273       C  0.47251156  0.15199423  0.54287098     0.03600
C3274       C  0.47942783  0.13012869  0.54444347    -0.25200
H3275       H  0.48938387  0.06946309  0.58734095     0.08700
H3276       H  0.48960664  0.08804889  0.55178956     0.12300
H3277       H  0.47057807  0.12957466  0.61893045     0.12300
H3278       H  0.46387660  0.16244231  0.59684538     0.12000
H3279       H  0.46154270  0.18031682  0.56098100     0.12600
H3280       H  0.48332987  0.12107584  0.52972406     0.14500
C3281       C  0.42373212  0.12300016  0.47223403    -0.05500
C3282       C  0.43292715  0.10499099  0.46129038    -0.05400
C3283       C  0.42075449  0.08607786  0.45766567    -0.23600
C3284       C  0.39913582  0.08472110  0.46499183     0.18600
C3285       C  0.38951156  0.10270672  0.47584815     0.15800
C3286       C  0.40186154  0.12179086  0.47934290    -0.18600
C3287       C  0.36780984  0.10110684  0.48324979    -0.20500
C3288       C  0.35594142  0.08174019  0.48020861    -0.13000
C3289       C  0.36563297  0.06389133  0.46965638     0.03600
C3290       C  0.38711453  0.06549663  0.46193414    -0.25200
H3291       H  0.44965696  0.10544971  0.45553714     0.08700
H3292       H  0.42832370  0.07243182  0.44929737     0.12300
H3293       H  0.39455222  0.13551754  0.48780392     0.12300
H3294       H  0.36014631  0.11469282  0.49160947     0.12000
H3295       H  0.33937898  0.08056714  0.48633113     0.12600
H3296       H  0.39456873  0.05157205  0.45387086     0.14500
C3297       C  0.58590941  0.96366957  0.33941556    -0.05500
C3298       C  0.58919949  0.94677561  0.32417889    -0.05400
C3299       C  0.61028173  0.94018179  0.31843643    -0.23600
C3300       C  0.62853900  0.95020562  0.32795972     0.18600
C3301       C  0.62550577  0.96731958  0.34316838     0.15800
C3302       C  0.60423235  0.97406450  0.34867226    -0.18600
C3303       C  0.64380954  0.97710337  0.35291062    -0.20500
C3304       C  0.66487571  0.96969566  0.34799877    -0.13000
C3305       C  0.66806885  0.95254078  0.33305482     0.03600
C3306       C  0.64975211  0.94308447  0.32284983    -0.25200
H3307       H  0.57542722  0.93853785  0.31670331     0.08700
H3308       H  0.61229334  0.92703744  0.30674591     0.12300
H3309       H  0.60196944  0.98706116  0.36048830     0.12300
H3310       H  0.64182537  0.99025841  0.36459002     0.12000
H3311       H  0.67868811  0.97732321  0.35602938     0.12600
H3312       H  0.65193515  0.92975833  0.31138581     0.14500
C3313       C  0.51936229  0.01595158  0.30225649    -0.05500
C3314       C  0.51966365  0.03891292  0.30307625    -0.05400
C3315       C  0.51969716  0.05124163  0.28382656    -0.23600
C3316       C  0.51980275  0.04079232  0.26344619     0.18600
C3317       C  0.51935098  0.01770174  0.26245541     0.15800
C3318       C  0.51884735  0.00545074  0.28184324    -0.18600
C3319       C  0.51999427  0.00723460  0.24210162    -0.20500
C3320       C  0.52157053  0.01952129  0.22290139    -0.13000
C3321       C  0.52219532  0.04248450  0.22370988     0.03600
C3322       C  0.52094294  0.05302976  0.24407083    -0.25200
H3323       H  0.51999359  0.04735425  0.31862933     0.08700
H3324       H  0.52006328  0.06892513  0.28488392     0.12300
H3325       H  0.51881838  0.98773938  0.28102276     0.12300
H3326       H  0.51969361  0.98954841  0.24105121     0.12000
H3327       H  0.52244948  0.01102615  0.20740106     0.12600
H3328       H  0.52159521  0.07072567  0.24491127     0.14500
C3329       C  0.46389334  0.99354830  0.37798253    -0.05500
C3330       C  0.44514120  0.99144141  0.36488438    -0.05400
C3331       C  0.42428596  0.99301088  0.37418709    -0.23600
C3332       C  0.42194219  0.99586108  0.39685539     0.18600
C3333       C  0.44084284  0.99790944  0.41007151     0.15800
C3334       C  0.46162626  0.99726760  0.40048449    -0.18600
C3335       C  0.43871631  0.99986901  0.43277064    -0.20500
C3336       C  0.41808042  0.99956888  0.44239786    -0.13000
C3337       C  0.39910609  0.99774275  0.42951828     0.03600
C3338       C  0.40113001  0.99617537  0.40663875    -0.25200
H3339       H  0.44666313  0.98842711  0.34750065     0.08700
H3340       H  0.41003087  0.99134567  0.36377519     0.12300
H3341       H  0.47609816  0.99845192  0.41070376     0.12300
H3342       H  0.45303726  0.00137723  0.44312371     0.12000
H3343       H  0.41696365  0.00115640  0.46000256     0.12600
H3344       H  0.38660470  0.99478532  0.39654787     0.14500
C3345       C  0.56805892  0.85264413  0.59826844    -0.05500
C3346       C  0.58434478  0.83691259  0.60235653    -0.05400
C3347       C  0.58864978  0.82979043  0.62360527    -0.23600
C3348       C  0.57691345  0.83842641  0.64122600     0.18600
C3349       C  0.56043231  0.85420772  0.63742082     0.15800
C3350       C  0.55597025  0.86109767  0.61592571    -0.18600
C3351       C  0.54902490  0.86306612  0.65523198    -0.20500
C3352       C  0.55431422  0.85673853  0.67662252    -0.13000
C3353       C  0.57084358  0.84119889  0.68050049     0.03600
C3354       C  0.58179362  0.83185660  0.66263018    -0.25200
H3355       H  0.59379100  0.83002456  0.58908334     0.08700
H3356       H  0.60134928  0.81769051  0.62627647     0.12300
H3357       H  0.54338390  0.87326891  0.61301314     0.12300
H3358       H  0.53631309  0.87516926  0.65264953     0.12000
H3359       H  0.54560897  0.86413002  0.69013187     0.12600
H3360       H  0.59469718  0.81997907  0.66538060     0.14500
C3361       C  0.54588529  0.89386183  0.47527124    -0.05500
C3362       C  0.55646199  0.88510260  0.45687418    -0.05400
C3363       C  0.55425844  0.89513770  0.43637119    -0.23600
C3364       C  0.54187803  0.91436483  0.43411199     0.18600
C3365       C  0.53131556  0.92327409  0.45263281     0.15800
C3366       C  0.53306749  0.91278261  0.47289255    -0.18600
C3367       C  0.51966504  0.94292577  0.45079809    -0.20500
C3368       C  0.51880678  0.95393291  0.43085600    -0.13000
C3369       C  0.52903409  0.94516083  0.41235116     0.03600
C3370       C  0.54028953  0.92519366  0.41386866    -0.25200
H3371       H  0.56651515  0.87057853  0.45837355     0.08700
H3372       H  0.56258965  0.88814291  0.42241389     0.12300
H3373       H  0.52513372  0.91991472  0.48703040     0.12300
H3374       H  0.51157766  0.94998876  0.46486896     0.12000
H3375       H  0.51001102  0.96930161  0.42979928     0.12600
H3376       H  0.54837520  0.91858401  0.39956642     0.14500
C3377       C  0.64476734  0.98909507  0.55287304    -0.05500
C3378       C  0.65610263  0.96977397  0.55795015    -0.05400
C3379       C  0.64568630  0.94947560  0.55594123    -0.23600
C3380       C  0.62361214  0.94840892  0.54959831     0.18600
C3381       C  0.61214540  0.96795885  0.54485463     0.15800
C3382       C  0.62291130  0.98803292  0.54606938    -0.18600
C3383       C  0.58992251  0.96724395  0.53944950    -0.20500
C3384       C  0.57899835  0.94731397  0.53889432    -0.13000
C3385       C  0.59020439  0.92772383  0.54322437     0.03600
C3386       C  0.61262628  0.92828172  0.54832315    -0.25200
H3387       H  0.67297030  0.97040736  0.56333961     0.08700
H3388       H  0.65471769  0.93469687  0.55976687     0.12300
H3389       H  0.61399420  0.00299577  0.54257807     0.12300
H3390       H  0.58093124  0.98211885  0.53588306     0.12000
H3391       H  0.56178139  0.94717763  0.53468697     0.12600
H3392       H  0.62130837  0.91319232  0.55177420     0.14500
C3393       C  0.33178998  0.44710364  0.58342591    -0.05500
C3394       C  0.31889480  0.44293775  0.60198196    -0.05400
C3395       C  0.31251922  0.42161972  0.60714168    -0.23600
C3396       C  0.31904640  0.40410971  0.59390326     0.18600
C3397       C  0.33217405  0.40811879  0.57532721     0.15800
C3398       C  0.33835149  0.42954548  0.57016548    -0.18600
C3399       C  0.33908819  0.39060485  0.56230661    -0.20500
C3400       C  0.33332123  0.36923302  0.56781547    -0.13000
C3401       C  0.32024314  0.36508172  0.58619731     0.03600
C3402       C  0.31294485  0.38263027  0.59907338    -0.25200
H3403       H  0.31361131  0.45617528  0.61246259     0.08700
H3404       H  0.30254477  0.41882581  0.62150739     0.12300
H3405       H  0.34837600  0.43249433  0.55585694     0.12300
H3406       H  0.34918213  0.39340774  0.54802783     0.12000
H3407       H  0.33911857  0.35591409  0.55771013     0.12600
H3408       H  0.30310209  0.37951492  0.61347988     0.14500
C3409       C  0.59691324  0.46294334  0.68265050    -0.05500
C3410       C  0.60131743  0.44915973  0.70053946    -0.05400
C3411       C  0.62282359  0.44450539  0.70664906    -0.23600
C3412       C  0.64030435  0.45330881  0.69477601     0.18600
C3413       C  0.63609835  0.46694356  0.67654708     0.15800
C3414       C  0.61442564  0.47184310  0.67071918    -0.18600
C3415       C  0.65364428  0.47529764  0.66439877    -0.20500
C3416       C  0.67516007  0.47013831  0.67023653    -0.13000
C3417       C  0.67948792  0.45675239  0.68846698     0.03600
C3418       C  0.66190979  0.44848790  0.70071997    -0.25200
H3419       H  0.58809627  0.44216731  0.70999594     0.08700
H3420       H  0.62577888  0.43395056  0.72061294     0.12300
H3421       H  0.61119336  0.48231352  0.65674132     0.12300
H3422       H  0.65072711  0.48568034  0.65030043     0.12000
H3423       H  0.68841322  0.47661751  0.66046689     0.12600
H3424       H  0.66498988  0.43791136  0.71465132     0.14500
C3425       C  0.47318519  0.48870058  0.64583284    -0.05500
C3426       C  0.45480400  0.48172595  0.65766264    -0.05400
C3427       C  0.43373039  0.48450467  0.64906263    -0.23600
C3428       C  0.43076158  0.49368236  0.62818871     0.18600
C3429       C  0.44924349  0.50058370  0.61614273     0.15800
C3430       C  0.47022662  0.49848097  0.62522189    -0.18600
C3431       C  0.44651740  0.50888124  0.59493041    -0.20500
C3432       C  0.42573457  0.50992811  0.58552375    -0.13000
C3433       C  0.40723010  0.50330121  0.59734502     0.03600
C3434       C  0.40975868  0.49554415  0.61887309    -0.25200
H3435       H  0.45675820  0.47412953  0.67356886     0.08700
H3436       H  0.41980586  0.47901674  0.65851273     0.12300
H3437       H  0.48435575  0.50359046  0.61582662     0.12300
H3438       H  0.46050429  0.51417245  0.58545123     0.12000
H3439       H  0.42405953  0.51613328  0.56898845     0.12600
H3440       H  0.39552740  0.49026366  0.62800127     0.14500
C3441       C  0.58576113  0.33453250  0.43415091    -0.05500
C3442       C  0.59959135  0.31640454  0.43122095    -0.05400
C3443       C  0.60452304  0.30895921  0.41014150    -0.23600
C3444       C  0.59585722  0.31968337  0.39171567     0.18600
C3445       C  0.58212447  0.33804257  0.39464524     0.15800
C3446       C  0.57712794  0.34523902  0.41572279    -0.18600
C3447       C  0.57360544  0.34905712  0.37645379    -0.20500
C3448       C  0.57863840  0.34201891  0.35543230    -0.13000
C3449       C  0.59223107  0.32376548  0.35214361     0.03600
C3450       C  0.60076306  0.31256162  0.37043133    -0.25200
H3451       H  0.60641530  0.30788069  0.44520792     0.08700
H3452       H  0.61512419  0.29488249  0.40825267     0.12300
H3453       H  0.56662310  0.35938915  0.41773896     0.12300
H3454       H  0.56310843  0.36319957  0.37847340     0.12000
H3455       H  0.57188435  0.35100035  0.34170124     0.12600
H3456       H  0.61139401  0.29856078  0.36813293     0.14500
C3457       C  0.49854452  0.22960948  0.49298768    -0.05500
C3458       C  0.52143497  0.22746780  0.49323462    -0.05400
C3459       C  0.53483013  0.24576828  0.49577084    -0.23600
C3460       C  0.52562960  0.26666449  0.49777342     0.18600
C3461       C  0.50264517  0.26911551  0.49754588     0.15800
C3462       C  0.48923345  0.25054719  0.49542954    -0.18600
C3463       C  0.49353340  0.29015178  0.49890367    -0.20500
C3464       C  0.50706481  0.30858099  0.49990307    -0.13000
C3465       C  0.52993745  0.30628846  0.50006219     0.03600
C3466       C  0.53907686  0.28518587  0.49937975    -0.25200
H3467       H  0.52904249  0.21156853  0.49146621     0.08700
H3468       H  0.55241880  0.24360149  0.49583049     0.12300
H3469       H  0.47161333  0.25247143  0.49508601     0.12300
H3470       H  0.47595570  0.29238682  0.49869886     0.12000
H3471       H  0.49964162  0.32466360  0.50035477     0.12600
H3472       H  0.55669572  0.28320634  0.49914472     0.14500
C3473       C  0.55696410  0.38551049  0.55152893    -0.05500
C3474       C  0.56184439  0.37547794  0.57164150    -0.05400
C3475       C  0.55886423  0.38684736  0.59126403    -0.23600
C3476       C  0.55150563  0.40860897  0.59100311     0.18600
C3477       C  0.54694328  0.41891043  0.57077656     0.15800
C3478       C  0.54932868  0.40719469  0.55126208    -0.18600
C3479       C  0.54043956  0.44089859  0.57034504    -0.20500
C3480       C  0.53848101  0.45263734  0.58979513    -0.13000
C3481       C  0.54248288  0.44245471  0.61000866     0.03600
C3482       C  0.54889579  0.42036271  0.61054438    -0.25200
H3483       H  0.56788495  0.35882555  0.57217322     0.08700
H3484       H  0.56260081  0.37873876  0.60660042     0.12300
H3485       H  0.54594465  0.41522144  0.53578369     0.12300
H3486       H  0.53702486  0.44906092  0.55496015     0.12000
H3487       H  0.53344676  0.46961768  0.58907495     0.12600
H3488       H  0.55225777  0.41249527  0.62610497     0.14500
C3489       C  0.68779724  0.59927790  0.43520927    -0.05500
C3490       C  0.70779816  0.60478788  0.42542920    -0.05400
C3491       C  0.71387734  0.62672048  0.42313839    -0.23600
C3492       C  0.69981188  0.64342602  0.43019063     0.18600
C3493       C  0.67956698  0.63792028  0.43985184     0.15800
C3494       C  0.67382283  0.61591841  0.44250866    -0.18600
C3495       C  0.66529515  0.65449975  0.44656658    -0.20500
C3496       C  0.67092296  0.67640020  0.44365383    -0.13000
C3497       C  0.69097767  0.68216228  0.43404698     0.03600
C3498       C  0.70545922  0.66551542  0.42748759    -0.25200
H3499       H  0.71885870  0.59211198  0.41990335     0.08700
H3500       H  0.72947693  0.63061531  0.41572201     0.12300
H3501       H  0.65829762  0.61171517  0.44995119     0.12300
H3502       H  0.64967657  0.65053193  0.45390737     0.12000
H3503       H  0.65941008  0.68884379  0.44874913     0.12600
H3504       H  0.72095808  0.66970347  0.42000469     0.14500
C3505       C  0.65028997  0.47469217  0.45300485    -0.05500
C3506       C  0.64228467  0.46305393  0.43490265    -0.05400
C3507       C  0.63067396  0.44358058  0.43787553    -0.23600
C3508       C  0.62720407  0.43526052  0.45898990     0.18600
C3509       C  0.63632681  0.44619261  0.47721030     0.15800
C3510       C  0.64760973  0.46593228  0.47411325    -0.18600
C3511       C  0.63346376  0.43751090  0.49827940    -0.20500
C3512       C  0.62113217  0.41851781  0.50134142    -0.13000
C3513       C  0.61111865  0.40824587  0.48346748     0.03600
C3514       C  0.61435056  0.41651907  0.46228069    -0.25200
H3515       H  0.64404990  0.46958542  0.41851794     0.08700
H3516       H  0.62398175  0.43530652  0.42371310     0.12300
H3517       H  0.65386587  0.47475160  0.48815950     0.12300
H3518       H  0.64047172  0.44558740  0.51240327     0.12000
H3519       H  0.61870917  0.41229037  0.51776200     0.12600
H3520       H  0.60672991  0.40844649  0.44845351     0.14500
C3521       C  0.41950501  0.58723753  0.33780893    -0.05500
C3522       C  0.41440071  0.60344832  0.32226697    -0.05400
C3523       C  0.39268536  0.60848043  0.31732594    -0.23600
C3524       C  0.37564269  0.59756335  0.32800976     0.18600
C3525       C  0.38050554  0.58111394  0.34355618     0.15800
C3526       C  0.40240313  0.57589105  0.34819571    -0.18600
C3527       C  0.36337454  0.57047634  0.35446730    -0.20500
C3528       C  0.34165030  0.57635093  0.35027116    -0.13000
C3529       C  0.33669338  0.59271457  0.33485802     0.03600
C3530       C  0.35382699  0.60308885  0.32362132    -0.25200
H3531       H  0.42722995  0.61233325  0.31392323     0.08700
H3532       H  0.38922784  0.62111683  0.30534839     0.12300
H3533       H  0.40609719  0.56337872  0.36024115     0.12300
H3534       H  0.36678108  0.55780344  0.36641705     0.12000
H3535       H  0.32871432  0.56800547  0.35899894     0.12600
H3536       H  0.35022359  0.61580516  0.31175718     0.14500
C3537       C  0.54470340  0.56393199  0.37087544    -0.05500
C3538       C  0.56278572  0.57068541  0.35845889    -0.05400
C3539       C  0.58408640  0.56744739  0.36635111    -0.23600
C3540       C  0.58754076  0.55793779  0.38701445     0.18600
C3541       C  0.56929518  0.55162588  0.39972281     0.15800
C3542       C  0.54813043  0.55434328  0.39145163    -0.18600
C3543       C  0.57242316  0.54293442  0.42067494    -0.20500
C3544       C  0.59344489  0.54051229  0.42908237    -0.13000
C3545       C  0.61177725  0.54630541  0.41656423     0.03600
C3546       C  0.60879199  0.55487413  0.39539304    -0.25200
H3547       H  0.56043184  0.57824464  0.34259007     0.08700
H3548       H  0.59781671  0.57257354  0.35641901     0.12300
H3549       H  0.53422831  0.54951416  0.40133309     0.12300
H3550       H  0.55859000  0.53815593  0.43064748     0.12000
H3551       H  0.59540079  0.53379831  0.44538408     0.12600
H3552       H  0.62288270  0.55960407  0.38575539     0.14500
C3553       C  0.44275578  0.70171192  0.59300234    -0.05500
C3554       C  0.42808080  0.71908028  0.59645411    -0.05400
C3555       C  0.42171801  0.72485557  0.61758724    -0.23600
C3556       C  0.42972412  0.71320596  0.63567220     0.18600
C3557       C  0.44446699  0.69568744  0.63241219     0.15800
C3558       C  0.45103466  0.69016547  0.61112878    -0.18600
C3559       C  0.45220625  0.68384029  0.65048694    -0.20500
C3560       C  0.44535004  0.68923065  0.67158296    -0.13000
C3561       C  0.43072600  0.70665839  0.67504577     0.03600
C3562       C  0.42305057  0.71865179  0.65692999    -0.25200
H3563       H  0.42152561  0.72828373  0.58276932     0.08700
H3564       H  0.41040047  0.73831849  0.61976581     0.12300
H3565       H  0.46222335  0.67663299  0.60866617     0.12300
H3566       H  0.46345433  0.67031963  0.64830691     0.12000
H3567       H  0.45151074  0.67968499  0.68521202     0.12600
H3568       H  0.41168222  0.73204702  0.65930693     0.14500
C3569       C  0.49500452  0.73881030  0.52668850    -0.05500
C3570       C  0.51784128  0.73788973  0.52920845    -0.05400
C3571       C  0.53023452  0.75703395  0.52941213    -0.23600
C3572       C  0.51995889  0.77742968  0.52739072     0.18600
C3573       C  0.49701673  0.77852405  0.52470580     0.15800
C3574       C  0.48473504  0.75922023  0.52410949    -0.18600
C3575       C  0.48666922  0.79893204  0.52322065    -0.20500
C3576       C  0.49888990  0.81811134  0.52485175    -0.13000
C3577       C  0.52167883  0.81718022  0.52759369     0.03600
C3578       C  0.53217089  0.79675843  0.52853135    -0.25200
H3579       H  0.52613757  0.72235103  0.53119542     0.08700
H3580       H  0.54779601  0.75590343  0.53153102     0.12300
H3581       H  0.46711715  0.76015477  0.52233382     0.12300
H3582       H  0.46909897  0.80006231  0.52118556     0.12000
H3583       H  0.49050339  0.83370373  0.52400363     0.12600
H3584       H  0.54973164  0.79590011  0.53086818     0.14500
C3585       C  0.47130955  0.66301544  0.47100962    -0.05500
C3586       C  0.46427379  0.67398548  0.45204162    -0.05400
C3587       C  0.46537672  0.66370608  0.43163143    -0.23600
C3588       C  0.47286315  0.64205623  0.43004623     0.18600
C3589       C  0.47987818  0.63096515  0.44915303     0.15800
C3590       C  0.47953403  0.64166792  0.46934938    -0.18600
C3591       C  0.48643551  0.60906755  0.44793648    -0.20500
C3592       C  0.48581591  0.59810550  0.42800834    -0.13000
C3593       C  0.47916458  0.60897134  0.40886535     0.03600
C3594       C  0.47295996  0.63108110  0.40986288    -0.25200
H3595       H  0.45769634  0.69040893  0.45306216     0.08700
H3596       H  0.45980601  0.67243856  0.41722322     0.12300
H3597       H  0.48451537  0.63292191  0.48398751     0.12300
H3598       H  0.49173611  0.60032549  0.46244447     0.12000
H3599       H  0.49088534  0.58112640  0.42748476     0.12600
H3600       H  0.46768658  0.63947367  0.39513025     0.14500
C3601       C  0.42354173  0.62944392  0.53626733    -0.05500
C3602       C  0.43318315  0.61004156  0.52876646    -0.05400
C3603       C  0.42191205  0.59031527  0.53006104    -0.23600
C3604       C  0.40106486  0.58964002  0.53945599     0.18600
C3605       C  0.39127852  0.60907218  0.54728927     0.15800
C3606       C  0.40243291  0.62901542  0.54519730    -0.18600
C3607       C  0.37083548  0.60804995  0.55763198    -0.20500
C3608       C  0.36043565  0.58788914  0.56059557    -0.13000
C3609       C  0.37002869  0.56862707  0.55263562     0.03600
C3610       C  0.39018444  0.56969733  0.54177132    -0.25200
H3611       H  0.44943950  0.61020768  0.52175157     0.08700
H3612       H  0.42966498  0.57553591  0.52411458     0.12300
H3613       H  0.39512155  0.64399478  0.55122353     0.12300
H3614       H  0.36317157  0.62273549  0.56389634     0.12000
H3615       H  0.34497751  0.58731292  0.56918068     0.12600
H3616       H  0.39794174  0.55481503  0.53604050     0.14500
C3617       C  0.67442278  0.42651061  0.06696567    -0.05500
C3618       C  0.66096850  0.41107309  0.05650866    -0.05400
C3619       C  0.66369057  0.38869358  0.06045260    -0.23600
C3620       C  0.68007874  0.38132204  0.07475451     0.18600
C3621       C  0.69402958  0.39671072  0.08490569     0.15800
C3622       C  0.69103831  0.41915159  0.08106605    -0.18600
C3623       C  0.71068459  0.38942749  0.09886541    -0.20500
C3624       C  0.71337638  0.36714151  0.10296651    -0.13000
C3625       C  0.69938284  0.35163454  0.09333070     0.03600
C3626       C  0.68274083  0.35887706  0.07913188    -0.25200
H3627       H  0.64801411  0.41632869  0.04558628     0.08700
H3628       H  0.65289997  0.37717611  0.05242034     0.12300
H3629       H  0.70165253  0.43087855  0.08905382     0.12300
H3630       H  0.72160709  0.40097298  0.10668000     0.12000
H3631       H  0.72638943  0.36206978  0.11390342     0.12600
H3632       H  0.67199380  0.34710436  0.07140237     0.14500
C3633       C  0.58652268  0.69942028  0.09325937    -0.05500
C3634       C  0.60214256  0.71564291  0.09782130    -0.05400
C3635       C  0.60618210  0.72212516  0.11945087    -0.23600
C3636       C  0.59482671  0.71230746  0.13684726     0.18600
C3637       C  0.57946113  0.69567636  0.13231712     0.15800
C3638       C  0.57537020  0.68946533  0.11068374    -0.18600
C3639       C  0.56834836  0.68543424  0.14948650    -0.20500
C3640       C  0.57236798  0.69154889  0.17104938    -0.13000
C3641       C  0.58741200  0.70819243  0.17591777     0.03600
C3642       C  0.59858373  0.71863506  0.15867183    -0.25200
H3643       H  0.61095673  0.72355348  0.08466116     0.08700
H3644       H  0.61812538  0.73482110  0.12256194     0.12300
H3645       H  0.56347582  0.67673832  0.10743909     0.12300
H3646       H  0.55658328  0.67259963  0.14624914     0.12000
H3647       H  0.56359087  0.68322733  0.18397966     0.12600
H3648       H  0.61044270  0.73130130  0.16223990     0.14500
C3649       C  0.54069157  0.73843566  0.02276959    -0.05500
C3650       C  0.55272204  0.75763544  0.01889562    -0.05400
C3651       C  0.54229819  0.77801100  0.01816926    -0.23600
C3652       C  0.51961753  0.77956926  0.02117262     0.18600
C3653       C  0.50724520  0.76030986  0.02424608     0.15800
C3654       C  0.51783756  0.73992548  0.02508900    -0.18600
C3655       C  0.48451845  0.76179825  0.02685937    -0.20500
C3656       C  0.47419425  0.78220862  0.02699336    -0.13000
C3657       C  0.48641655  0.80152903  0.02478096     0.03600
C3658       C  0.50915591  0.80005607  0.02159430    -0.25200
H3659       H  0.57030956  0.75698764  0.01699857     0.08700
H3660       H  0.55203283  0.79258344  0.01561934     0.12300
H3661       H  0.50829213  0.72526440  0.02789293     0.12300
H3662       H  0.47475887  0.74719500  0.02912731     0.12000
H3663       H  0.45668576  0.78290503  0.02951774     0.12600
H3664       H  0.51872641  0.81484238  0.01966540     0.14500
C3665       C  0.60050967  0.62212248  0.03925428    -0.05500
C3666       C  0.58770996  0.60405681  0.03324915    -0.05400
C3667       C  0.59625629  0.58296111  0.03406316    -0.23600
C3668       C  0.61765613  0.57944211  0.04140610     0.18600
C3669       C  0.63072949  0.59738069  0.04785098     0.15800
C3670       C  0.62219683  0.61878053  0.04629959    -0.18600
C3671       C  0.65187917  0.59343790  0.05605421    -0.20500
C3672       C  0.65982476  0.57195767  0.05799681    -0.13000
C3673       C  0.64699209  0.55421292  0.05112998     0.03600
C3674       C  0.62598796  0.55815478  0.04271915    -0.25200
H3675       H  0.57105903  0.60631456  0.02757315     0.08700
H3676       H  0.58602805  0.56936290  0.02916042     0.12300
H3677       H  0.63210198  0.63266110  0.05108120     0.12300
H3678       H  0.66212562  0.60690751  0.06123871     0.12000
H3679       H  0.67603695  0.56921261  0.06462235     0.12600
H3680       H  0.61580680  0.54450476  0.03779589     0.14500
C3681       C  0.41829177  0.47073542  0.17809976    -0.05500
C3682       C  0.40272402  0.48208249  0.16545707    -0.05400
C3683       C  0.38040744  0.47895016  0.16897589    -0.23600
C3684       C  0.37329855  0.46453167  0.18529898     0.18600
C3685       C  0.38885153  0.45360532  0.19856021     0.15800
C3686       C  0.41121410  0.45670551  0.19482867    -0.18600
C3687       C  0.38179383  0.43945642  0.21510760    -0.20500
C3688       C  0.35953937  0.43565239  0.21809746    -0.13000
C3689       C  0.34394250  0.44582484  0.20451166     0.03600
C3690       C  0.35093825  0.46053480  0.18831652    -0.25200
H3691       H  0.40779138  0.49304337  0.15249145     0.08700
H3692       H  0.36873224  0.48757086  0.15874814     0.12300
H3693       H  0.42308316  0.44807439  0.20484077     0.12300
H3694       H  0.39348421  0.43106730  0.22551195     0.12000
H3695       H  0.35458268  0.42426672  0.23073616     0.12600
H3696       H  0.33904906  0.46862464  0.17788938     0.14500
C3697       C  0.48780462  0.53958404  0.29799145    -0.05500
C3698       C  0.48831688  0.51661865  0.29889818    -0.05400
C3699       C  0.48908996  0.50431657  0.27971516    -0.23600
C3700       C  0.48910160  0.51477498  0.25930124     0.18600
C3701       C  0.48861289  0.53786369  0.25820922     0.15800
C3702       C  0.48817454  0.55011251  0.27754601    -0.18600
C3703       C  0.48819738  0.54830531  0.23778957    -0.20500
C3704       C  0.48798688  0.53598070  0.21859939    -0.13000
C3705       C  0.48841948  0.51301075  0.21950198     0.03600
C3706       C  0.48919478  0.50252061  0.23997012    -0.25200
H3707       H  0.48810538  0.50814079  0.31446747     0.08700
H3708       H  0.48942345  0.48662637  0.28084421     0.12300
H3709       H  0.48759750  0.56781785  0.27664618     0.12300
H3710       H  0.48775535  0.56599244  0.23665975     0.12000
H3711       H  0.48734825  0.54445170  0.20303745     0.12600
H3712       H  0.48932282  0.48480925  0.24090745     0.14500
C3713       C  0.60719033  0.48781058  0.09168454    -0.05500
C3714       C  0.58903234  0.49788619  0.08188595    -0.05400
C3715       C  0.56930336  0.49940619  0.09303912    -0.23600
C3716       C  0.56726085  0.49037412  0.11398388     0.18600
C3717       C  0.58525555  0.47972502  0.12392498     0.15800
C3718       C  0.60536079  0.47887883  0.11282788    -0.18600
C3719       C  0.58260566  0.46990036  0.14456401    -0.20500
C3720       C  0.56221889  0.47039043  0.15502886    -0.13000
C3721       C  0.54446104  0.48129116  0.14527045     0.03600
C3722       C  0.54726751  0.49144560  0.12486343    -0.25200
H3723       H  0.59027435  0.50506694  0.06571680     0.08700
H3724       H  0.55558311  0.50750721  0.08520470     0.12300
H3725       H  0.61937278  0.47099042  0.12036731     0.12300
H3726       H  0.59614183  0.46149223  0.15238162     0.12000
H3727       H  0.56030321  0.46223189  0.17064566     0.12600
H3728       H  0.53353870  0.49944054  0.11690305     0.14500
C3729       C  0.44860801  0.35360426  0.92414153    -0.05500
C3730       C  0.46013715  0.36608317  0.90867250    -0.05400
C3731       C  0.45726165  0.36256857  0.88640700    -0.23600
C3732       C  0.44290463  0.34638514  0.87912610     0.18600
C3733       C  0.43139780  0.33339866  0.89440487     0.15800
C3734       C  0.43421182  0.33718271  0.91692257    -0.18600
C3735       C  0.41726686  0.31700466  0.88679788    -0.20500
C3736       C  0.41431465  0.31386188  0.86429370    -0.13000
C3737       C  0.42535750  0.32715280  0.84910765     0.03600
C3738       C  0.43979346  0.34321310  0.85672699    -0.25200
H3739       H  0.47127605  0.37885340  0.91377667     0.08700
H3740       H  0.46621766  0.37259976  0.87487020     0.12300
H3741       H  0.42538743  0.32734172  0.92872971     0.12300
H3742       H  0.40838061  0.30677832  0.89821189     0.12000
H3743       H  0.40309205  0.30133278  0.85878953     0.12600
H3744       H  0.44858047  0.35342261  0.84520102     0.14500
C3745       C  0.49180888  0.31029371  0.99298064    -0.05500
C3746       C  0.51478602  0.31040782  0.99257352    -0.05400
C3747       C  0.52649240  0.29085476  0.99205550    -0.23600
C3748       C  0.51541353  0.27084657  0.99171188     0.18600
C3749       C  0.49231587  0.27048656  0.99235454     0.15800
C3750       C  0.48065205  0.29021761  0.99321386    -0.18600
C3751       C  0.48129460  0.25041291  0.99165816    -0.20500
C3752       C  0.49306405  0.23088819  0.99008137    -0.13000
C3753       C  0.51602765  0.23113714  0.98940369     0.03600
C3754       C  0.52708850  0.25121710  0.99039371    -0.25200
H3755       H  0.52375955  0.32566448  0.99243175     0.08700
H3756       H  0.54419286  0.29139659  0.99157527     0.12300
H3757       H  0.46293232  0.28993715  0.99336116     0.12300
H3758       H  0.46359811  0.24982531  0.99211504     0.12000
H3759       H  0.48418754  0.21558931  0.98945161     0.12600
H3760       H  0.54479718  0.25163603  0.98977428     0.14500
C3761       C  0.46732935  0.38667523  0.04926014    -0.05500
C3762       C  0.45871618  0.37679458  0.06810111    -0.05400
C3763       C  0.45981105  0.38760722  0.08829227    -0.23600
C3764       C  0.46883709  0.40870688  0.08963929     0.18600
C3765       C  0.47723770  0.41868977  0.07055823     0.15800
C3766       C  0.47683921  0.40747257  0.05074695    -0.18600
C3767       C  0.48540110  0.44002934  0.07134562    -0.20500
C3768       C  0.48508641  0.45159801  0.09087978    -0.13000
C3769       C  0.47709946  0.44186576  0.11005266     0.03600
C3770       C  0.46922547  0.42026374  0.10949447    -0.25200
H3771       H  0.45113969  0.36082393  0.06717704     0.08700
H3772       H  0.45315810  0.37972951  0.10269462     0.12300
H3773       H  0.48304461  0.41545469  0.03616749     0.12300
H3774       H  0.49178889  0.44787236  0.05679380     0.12000
H3775       H  0.49147654  0.46811744  0.09109415     0.12600
H3776       H  0.46296905  0.41275017  0.12427994     0.14500
C3777       C  0.34050816  0.61460834  0.96006423    -0.05500
C3778       C  0.34936445  0.63084124  0.97372517    -0.05400
C3779       C  0.34507811  0.65295013  0.96978891    -0.23600
C3780       C  0.33173323  0.65923119  0.95220341     0.18600
C3781       C  0.32237769  0.64302414  0.93864000     0.15800
C3782       C  0.32689842  0.62087345  0.94258077    -0.18600
C3783       C  0.30870302  0.64924087  0.92129299    -0.20500
C3784       C  0.30437505  0.67131556  0.91736736    -0.13000
C3785       C  0.31389969  0.68756940  0.93049624     0.03600
C3786       C  0.32761805  0.68142311  0.94791175    -0.25200
H3787       H  0.35988819  0.62648301  0.98732466     0.08700
H3788       H  0.35228467  0.66512818  0.98043299     0.12300
H3789       H  0.31985433  0.60854723  0.93198528     0.12300
H3790       H  0.30136976  0.63704455  0.91075570     0.12000
H3791       H  0.29384006  0.67571018  0.90378115     0.12600
H3792       H  0.33488181  0.69386921  0.95821958     0.14500
C3793       C  0.37624516  0.48924193  0.97671320    -0.05500
C3794       C  0.36469779  0.47116411  0.96856426    -0.05400
C3795       C  0.37403279  0.45023877  0.96918040    -0.23600
C3796       C  0.39531803  0.44725084  0.97731778     0.18600
C3797       C  0.40705552  0.46550116  0.98529943     0.15800
C3798       C  0.39729282  0.48620592  0.98536289    -0.18600
C3799       C  0.42860734  0.46290824  0.99259101    -0.20500
C3800       C  0.43859245  0.44245287  0.99179556    -0.13000
C3801       C  0.42707386  0.42412661  0.98418830     0.03600
C3802       C  0.40528706  0.42650395  0.97721861    -0.25200
H3803       H  0.34848252  0.47324824  0.96170921     0.08700
H3804       H  0.36481622  0.43650662  0.96286918     0.12300
H3805       H  0.40647722  0.50016743  0.99126738     0.12300
H3806       H  0.43783448  0.47674735  0.99866457     0.12000
H3807       H  0.45531222  0.44086909  0.99749008     0.12600
H3808       H  0.39638171  0.41240669  0.97124133     0.14500
C3809       C  0.59845091  0.57277733  0.84355124    -0.05500
C3810       C  0.61385440  0.55876257  0.85344259    -0.05400
C3811       C  0.63619975  0.56168532  0.84999708    -0.23600
C3812       C  0.64361511  0.57859984  0.83647053     0.18600
C3813       C  0.62830475  0.59244116  0.82592820     0.15800
C3814       C  0.60583081  0.58951846  0.82960661    -0.18600
C3815       C  0.63577204  0.60912734  0.81209565    -0.20500
C3816       C  0.65817848  0.61229696  0.80904422    -0.13000
C3817       C  0.67351250  0.59903094  0.81998187     0.03600
C3818       C  0.66609389  0.58207819  0.83356834    -0.25200
H3819       H  0.60866925  0.54569604  0.86422249     0.08700
H3820       H  0.64768692  0.55084049  0.85809665     0.12300
H3821       H  0.59415275  0.60035832  0.82176326     0.12300
H3822       H  0.62430711  0.61986405  0.80382239     0.12000
H3823       H  0.66352968  0.62557058  0.79859663     0.12600
H3824       H  0.67780279  0.57168771  0.84196523     0.14500
C3825       C  0.52834761  0.50974885  0.72210380    -0.05500
C3826       C  0.52855712  0.53272301  0.72246276    -0.05400
C3827       C  0.52767237  0.54400804  0.74230544    -0.23600
C3828       C  0.52688575  0.53251950  0.76217530     0.18600
C3829       C  0.52667043  0.50942266  0.76203837     0.15800
C3830       C  0.52718139  0.49820437  0.74202799    -0.18600
C3831       C  0.52637728  0.49794460  0.78193561    -0.20500
C3832       C  0.52668471  0.50923908  0.80180747    -0.13000
C3833       C  0.52698542  0.53222010  0.80214944     0.03600
C3834       C  0.52679674  0.54374256  0.78217710    -0.25200
H3835       H  0.52942238  0.54199234  0.70737665     0.08700
H3836       H  0.52790186  0.56172962  0.74211875     0.12300
H3837       H  0.52722229  0.48047232  0.74201875     0.12300
H3838       H  0.52626181  0.48022183  0.78213480     0.12000
H3839       H  0.52685377  0.49997080  0.81692076     0.12600
H3840       H  0.52724709  0.56146753  0.78215179     0.14500
C3841       C  0.47349900  0.56138740  0.88025844    -0.05500
C3842       C  0.45432279  0.55745366  0.86834398    -0.05400
C3843       C  0.43419807  0.55601303  0.87919772    -0.23600
C3844       C  0.43308462  0.55882657  0.90200459     0.18600
C3845       C  0.45241843  0.56327955  0.91388314     0.15800
C3846       C  0.47246284  0.56432783  0.90295698    -0.18600
C3847       C  0.45146542  0.56644439  0.93653232    -0.20500
C3848       C  0.43156253  0.56487009  0.94748942    -0.13000
C3849       C  0.41221274  0.55998473  0.93604561     0.03600
C3850       C  0.41308905  0.55712270  0.91318720    -0.25200
H3851       H  0.45500275  0.55506837  0.85081102     0.08700
H3852       H  0.41955296  0.55261962  0.86980417     0.12300
H3853       H  0.48736653  0.56745685  0.91209804     0.12300
H3854       H  0.46615594  0.56998932  0.94581350     0.12000
H3855       H  0.43140993  0.56719042  0.96504385     0.12600
H3856       H  0.39830298  0.55342174  0.90412537     0.14500
C3857       C  0.55782081  0.65652278  0.97257930    -0.05500
C3858       C  0.56354495  0.66640880  0.95267444    -0.05400
C3859       C  0.56050179  0.65521364  0.93292695    -0.23600
C3860       C  0.55240914  0.63371170  0.93293771     0.18600
C3861       C  0.54690651  0.62362376  0.95300434     0.15800
C3862       C  0.54921330  0.63524130  0.97257685    -0.18600
C3863       C  0.53968911  0.60188137  0.95326259    -0.20500
C3864       C  0.53809845  0.59010207  0.93380806    -0.13000
C3865       C  0.54320457  0.60000071  0.91372679     0.03600
C3866       C  0.55013296  0.62193887  0.91334563    -0.25200
H3867       H  0.57031299  0.68276612  0.95242386     0.08700
H3868       H  0.56491179  0.66317177  0.91771868     0.12300
H3869       H  0.54518977  0.62735937  0.98795994     0.12300
H3870       H  0.53550553  0.59391054  0.96853405     0.12000
H3871       H  0.53250327  0.57330924  0.93441642     0.12600
H3872       H  0.55420996  0.62964052  0.89789923     0.14500
C3873       C  0.05659964  0.68610886  0.41997974    -0.05500
C3874       C  0.04191900  0.67633151  0.40518686    -0.05400
C3875       C  0.04434282  0.67920654  0.38268189    -0.23600
C3876       C  0.06143020  0.69200404  0.37450837     0.18600
C3877       C  0.07589885  0.70247453  0.38922445     0.15800
C3878       C  0.07343426  0.69942474  0.41184200    -0.18600
C3879       C  0.09276305  0.71559336  0.38104582    -0.20500
C3880       C  0.09541437  0.71811890  0.35852085    -0.13000
C3881       C  0.08144425  0.70734354  0.34377674     0.03600
C3882       C  0.06441498  0.69433369  0.35187572    -0.25200
H3883       H  0.02874068  0.66604398  0.41097284     0.08700
H3884       H  0.03299779  0.67120142  0.37166801     0.12300
H3885       H  0.08479845  0.70715639  0.42304312     0.12300
H3886       H  0.10397958  0.72378853  0.39205122     0.12000
H3887       H  0.10872661  0.72816964  0.35260486     0.12600
H3888       H  0.05346593  0.68613383  0.34059079     0.14500
C3889       C  0.01583468  0.72554686  0.49456290    -0.05500
C3890       C  0.99310934  0.72533231  0.49093141    -0.05400
C3891       C  0.98080462  0.74454166  0.49270508    -0.23600
C3892       C  0.99101779  0.76435479  0.49800443     0.18600
C3893       C  0.01375468  0.76462836  0.50223133     0.15800
C3894       C  0.02594293  0.74525375  0.50066735    -0.18600
C3895       C  0.02409487  0.78442033  0.50724579    -0.20500
C3896       C  0.01223486  0.80392399  0.50713330    -0.13000
C3897       C  0.98974656  0.80396612  0.50239767     0.03600
C3898       C  0.97907542  0.78400699  0.49841636    -0.25200
H3899       H  0.98486675  0.71038036  0.48628867     0.08700
H3900       H  0.96339145  0.74398703  0.48943888     0.12300
H3901       H  0.04342331  0.74569012  0.50361434     0.12300
H3902       H  0.04148382  0.78490858  0.51065148     0.12000
H3903       H  0.02074573  0.81907922  0.51046824     0.12600
H3904       H  0.96174192  0.78388667  0.49465308     0.14500
C3905       C  0.09175013  0.57771388  0.68422946    -0.05500
C3906       C  0.09620391  0.59288384  0.70087136    -0.05400
C3907       C  0.11766062  0.59876087  0.70574042    -0.23600
C3908       C  0.13498978  0.58982104  0.69379599     0.18600
C3909       C  0.13074675  0.57424202  0.67727025     0.15800
C3910       C  0.10914588  0.56802587  0.67281191    -0.18600
C3911       C  0.14812896  0.56567620  0.66506026    -0.20500
C3912       C  0.16946788  0.57285078  0.66888575    -0.13000
C3913       C  0.17375890  0.58842862  0.68519879     0.03600
C3914       C  0.15644109  0.59661919  0.69779160    -0.25200
H3915       H  0.08304042  0.60043263  0.70997724     0.08700
H3916       H  0.12065951  0.61067595  0.71849055     0.12300
H3917       H  0.10584289  0.55639862  0.65985937     0.12300
H3918       H  0.14518690  0.55370666  0.65235033     0.12000
H3919       H  0.18262824  0.56614137  0.65914623     0.12600
H3920       H  0.15957056  0.60868265  0.71038509     0.14500
C3921       C  0.03951287  0.59792766  0.60926401    -0.05500
C3922       C  0.03501406  0.58619714  0.59006950    -0.05400
C3923       C  0.03635754  0.59629679  0.56973282    -0.23600
C3924       C  0.04260889  0.61823053  0.56820344     0.18600
C3925       C  0.04800813  0.63011342  0.58727003     0.15800
C3926       C  0.04612018  0.61992629  0.60784300    -0.18600
C3927       C  0.05506195  0.65191993  0.58528413    -0.20500
C3928       C  0.05627682  0.66189318  0.56461721    -0.13000
C3929       C  0.04994426  0.65029799  0.54586876     0.03600
C3930       C  0.04338289  0.62843637  0.54780698    -0.25200
H3931       H  0.02985496  0.56926688  0.59082772     0.08700
H3932       H  0.03235930  0.58698529  0.55520650     0.12300
H3933       H  0.04987380  0.62895711  0.62261192     0.12300
H3934       H  0.05953493  0.66123303  0.59965948     0.12000
H3935       H  0.06161819  0.67872531  0.56332178     0.12600
H3936       H  0.03903202  0.61923680  0.53328284     0.14500
C3937       C  0.19173395  0.43752023  0.43854852    -0.05500
C3938       C  0.20510279  0.43343734  0.42031767    -0.05400
C3939       C  0.21152465  0.41212732  0.41517053    -0.23600
C3940       C  0.20448676  0.39449034  0.42801816     0.18600
C3941       C  0.19118684  0.39842792  0.44648383     0.15800
C3942       C  0.18509119  0.41988721  0.45174291    -0.18600
C3943       C  0.18378008  0.38078817  0.45910797    -0.20500
C3944       C  0.18902236  0.35939003  0.45317280    -0.13000
C3945       C  0.20207344  0.35528157  0.43474925     0.03600
C3946       C  0.21009371  0.37295613  0.42243919    -0.25200
H3947       H  0.21050786  0.44671976  0.40991829     0.08700
H3948       H  0.22170788  0.40941445  0.40094508     0.12300
H3949       H  0.17472225  0.42276390  0.46581041     0.12300
H3950       H  0.17361288  0.38351466  0.47334247     0.12000
H3951       H  0.18283841  0.34601237  0.46300398     0.12600
H3952       H  0.22008772  0.36992735  0.40813039     0.14500
C3953       C  0.29070753  0.51343006  0.53645704    -0.05500
C3954       C  0.27141819  0.51181288  0.54880546    -0.05400
C3955       C  0.25102751  0.51071316  0.53848912    -0.23600
C3956       C  0.24949728  0.51150944  0.51561195     0.18600
C3957       C  0.26871515  0.51386891  0.50302909     0.15800
C3958       C  0.28920109  0.51463083  0.51350591    -0.18600
C3959       C  0.26711589  0.51508003  0.48016864    -0.20500
C3960       C  0.24674910  0.51344791  0.46984036    -0.13000
C3961       C  0.22758434  0.51036959  0.48214047     0.03600
C3962       C  0.22911481  0.50965322  0.50511292    -0.25200
H3963       H  0.27213774  0.51071959  0.56647631     0.08700
H3964       H  0.23646778  0.50898241  0.54840944     0.12300
H3965       H  0.30395893  0.51600056  0.50380699     0.12300
H3966       H  0.28164914  0.51701715  0.47024743     0.12000
H3967       H  0.24608437  0.51403142  0.45214674     0.12600
H3968       H  0.21448260  0.50742517  0.51483998     0.14500
C3969       C  0.14457124  0.55775605  0.46251773    -0.05500
C3970       C  0.15428363  0.57746515  0.45587570    -0.05400
C3971       C  0.14304580  0.59731536  0.45823582    -0.23600
C3972       C  0.12166124  0.59760363  0.46658984     0.18600
C3973       C  0.11174821  0.57770594  0.47295540     0.15800
C3974       C  0.12340107  0.55805860  0.47129671    -0.18600
C3975       C  0.09014014  0.57765440  0.48044778    -0.20500
C3976       C  0.07832091  0.59711580  0.48151810    -0.13000
C3977       C  0.08800325  0.61706948  0.47558527     0.03600
C3978       C  0.10983046  0.61728715  0.46833743    -0.25200
H3979       H  0.17056678  0.57749086  0.44894824     0.08700
H3980       H  0.15089400  0.61235424  0.45314321     0.12300
H3981       H  0.11564639  0.54282718  0.47602886     0.12300
H3982       H  0.08229788  0.56252379  0.48528705     0.12000
H3983       H  0.06162617  0.59660996  0.48738105     0.12600
H3984       H  0.11737595  0.63261942  0.46363720     0.14500
C3985       C  0.92661888  0.44608002  0.32971035    -0.05500
C3986       C  0.92142734  0.42976186  0.31441032    -0.05400
C3987       C  0.89966242  0.42561435  0.30877814    -0.23600
C3988       C  0.88269587  0.43751632  0.31857303     0.18600
C3989       C  0.88772265  0.45390382  0.33403353     0.15800
C3990       C  0.90961717  0.45822178  0.33932457    -0.18600
C3991       C  0.87074896  0.46546924  0.34420382    -0.20500
C3992       C  0.84895449  0.46067154  0.33929731    -0.13000
C3993       C  0.84376454  0.44446719  0.32389190     0.03600
C3994       C  0.86078495  0.43307307  0.31343391    -0.25200
H3995       H  0.93421066  0.42021426  0.30675384     0.08700
H3996       H  0.89609170  0.41294602  0.29693260     0.12300
H3997       H  0.91336942  0.47072965  0.35129541     0.12300
H3998       H  0.87432162  0.47805048  0.35614003     0.12000
H3999       H  0.83614361  0.46967085  0.34754639     0.12600
H4000       H  0.85699347  0.42036530  0.30168600     0.14500
C4001       C  0.11306631  0.48585112  0.42151460    -0.05500
C4002       C  0.09379653  0.49041093  0.43308343    -0.05400
C4003       C  0.07338967  0.48733807  0.42336253    -0.23600
C4004       C  0.07186724  0.47912180  0.40204802     0.18600
C4005       C  0.09110386  0.47385805  0.39038182     0.15800
C4006       C  0.11167024  0.47766267  0.40005882    -0.18600
C4007       C  0.08933333  0.46473343  0.36936618    -0.20500
C4008       C  0.06871628  0.46098026  0.36002333    -0.13000
C4009       C  0.04964352  0.46687864  0.37130523     0.03600
C4010       C  0.05136707  0.47595409  0.39230765    -0.25200
H4011       H  0.09454865  0.49679855  0.44958671     0.08700
H4012       H  0.05879251  0.49129621  0.43256000     0.12300
H4013       H  0.12649806  0.47387786  0.39115060     0.12300
H4014       H  0.10385636  0.46039544  0.36023416     0.12000
H4015       H  0.06766221  0.45387486  0.34384170     0.12600
H4016       H  0.03666409  0.48014947  0.40126466     0.14500
C4017       C  0.93320467  0.34256114  0.59380854    -0.05500
C4018       C  0.91617154  0.32805720  0.59900116    -0.05400
C4019       C  0.91166167  0.32277728  0.62077343    -0.23600
C4020       C  0.92398741  0.33206475  0.63772846     0.18600
C4021       C  0.94101620  0.34682207  0.63268629     0.15800
C4022       C  0.94559802  0.35185383  0.61080222    -0.18600
C4023       C  0.95309636  0.35642686  0.64962451    -0.20500
C4024       C  0.94831689  0.35150924  0.67140084    -0.13000
C4025       C  0.93153812  0.33672137  0.67661407     0.03600
C4026       C  0.91946954  0.32698113  0.65963596    -0.25200
H4027       H  0.90638625  0.32068423  0.58621501     0.08700
H4028       H  0.89849199  0.31149464  0.62434877     0.12300
H4029       H  0.95866438  0.36321206  0.60704534     0.12300
H4030       H  0.96616166  0.36782920  0.64603977     0.12000
H4031       H  0.95783279  0.35923660  0.68418120     0.12600
H4032       H  0.90632968  0.31572965  0.66345504     0.14500
C4033       C  0.03189376  0.23930687  0.52250890    -0.05500
C4034       C  0.04411694  0.25868675  0.52079023    -0.05400
C4035       C  0.03361760  0.27900463  0.52030699    -0.23600
C4036       C  0.01074681  0.28021251  0.52144594     0.18600
C4037       C  0.99834980  0.26074497  0.52235626     0.15800
C4038       C  0.00897475  0.24049139  0.52288057    -0.18600
C4039       C  0.97550473  0.26181805  0.52323519    -0.20500
C4040       C  0.96498189  0.28203262  0.52375974    -0.13000
C4041       C  0.97712981  0.30150336  0.52359362     0.03600
C4042       C  0.00005355  0.30050133  0.52215516    -0.25200
H4043       H  0.06181366  0.25818350  0.52046472     0.08700
H4044       H  0.04338236  0.29375443  0.51946136     0.12300
H4045       H  0.99935555  0.22565269  0.52400881     0.12300
H4046       H  0.96578647  0.24702654  0.52386669     0.12000
H4047       H  0.94731884  0.28240704  0.52491536     0.12600
H4048       H  0.00955540  0.31545436  0.52183846     0.14500
C4049       C  0.95786122  0.37871404  0.46999581    -0.05500
C4050       C  0.95084565  0.36752502  0.45122285    -0.05400
C4051       C  0.95467238  0.37634550  0.43039791    -0.23600
C4052       C  0.96499517  0.39674403  0.42817046     0.18600
C4053       C  0.97160459  0.40820665  0.44713345     0.15800
C4054       C  0.96834206  0.39896634  0.46777991    -0.18600
C4055       C  0.98107364  0.42893693  0.44524222    -0.20500
C4056       C  0.98388460  0.43839734  0.42472759    -0.13000
C4057       C  0.97778630  0.42709062  0.40573856     0.03600
C4058       C  0.96853920  0.40611994  0.40745308    -0.25200
H4059       H  0.94264632  0.35190570  0.45267342     0.08700
H4060       H  0.94933112  0.36737453  0.41608639     0.12300
H4061       H  0.97340940  0.40788819  0.48224961     0.12300
H4062       H  0.98610123  0.43794109  0.45965153     0.12000
H4063       H  0.99114877  0.45451305  0.42365227     0.12600
H4064       H  0.96361743  0.39745529  0.39279117     0.14500
C4065       C  0.80716797  0.67917860  0.60248110    -0.05500
C4066       C  0.79851925  0.66294035  0.61625218    -0.05400
C4067       C  0.80318908  0.64088894  0.61257596    -0.23600
C4068       C  0.81633129  0.63470439  0.59487353     0.18600
C4069       C  0.82501580  0.65092558  0.58087349     0.15800
C4070       C  0.82055270  0.67304615  0.58488384    -0.18600
C4071       C  0.83791572  0.64474592  0.56301405    -0.20500
C4072       C  0.84212683  0.62267673  0.55898838    -0.13000
C4073       C  0.83364636  0.60638299  0.57283659     0.03600
C4074       C  0.82080563  0.61257653  0.59085257    -0.25200
H4075       H  0.78834936  0.66732101  0.63005079     0.08700
H4076       H  0.79643451  0.62867808  0.62350280     0.12300
H4077       H  0.82725128  0.68546007  0.57413476     0.12300
H4078       H  0.84467745  0.65696988  0.55210514     0.12000
H4079       H  0.85212220  0.61838555  0.54503961     0.12600
H4080       H  0.81414597  0.60020597  0.60166856     0.14500
C4081       C  0.79049431  0.53572152  0.52890773    -0.05500
C4082       C  0.77083504  0.53527662  0.54073202    -0.05400
C4083       C  0.75087329  0.53308510  0.52998211    -0.23600
C4084       C  0.75017224  0.53115910  0.50718843     0.18600
C4085       C  0.76978153  0.53120139  0.49502179     0.15800
C4086       C  0.78988476  0.53359354  0.50596781    -0.18600
C4087       C  0.76882003  0.52913323  0.47215415    -0.20500
C4088       C  0.74857139  0.52777860  0.46145328    -0.13000
C4089       C  0.72901532  0.52847546  0.47347853     0.03600
C4090       C  0.73005949  0.52969270  0.49640210    -0.25200
H4091       H  0.77083742  0.53693058  0.55836622     0.08700
H4092       H  0.73594918  0.53308308  0.53950614     0.12300
H4093       H  0.80496669  0.53376015  0.49668782     0.12300
H4094       H  0.78367587  0.52901990  0.46253094     0.12000
H4095       H  0.74820360  0.52693498  0.44376446     0.12600
H4096       H  0.71513147  0.53010727  0.50592808     0.14500
C4097       C  0.86587966  0.48091295  0.55270638    -0.05500
C4098       C  0.85502909  0.46257847  0.56124772    -0.05400
C4099       C  0.86429193  0.44170323  0.55925743    -0.23600
C4100       C  0.88479483  0.43906024  0.54927069     0.18600
C4101       C  0.89594003  0.45763032  0.54117903     0.15800
C4102       C  0.88626828  0.47825724  0.54261339    -0.18600
C4103       C  0.91679401  0.45540915  0.53207561    -0.20500
C4104       C  0.92663377  0.43492246  0.53097881    -0.13000
C4105       C  0.91558514  0.41628987  0.53846305     0.03600
C4106       C  0.89456055  0.41832641  0.54746731    -0.25200
H4107       H  0.83938293  0.46439722  0.56930973     0.08700
H4108       H  0.85559726  0.42771324  0.56576351     0.12300
H4109       H  0.89500647  0.49242342  0.53649470     0.12300
H4110       H  0.92556291  0.46953493  0.52596094     0.12000
H4111       H  0.94280382  0.43354860  0.52389818     0.12600
H4112       H  0.88612736  0.40393834  0.55346654     0.14500
C4113       C  0.90409799  0.54662450  0.59368079    -0.05500
C4114       C  0.92212978  0.53646914  0.58383467    -0.05400
C4115       C  0.94229754  0.53587120  0.59446435    -0.23600
C4116       C  0.94485549  0.54596780  0.61484720     0.18600
C4117       C  0.92680732  0.55642271  0.62483280     0.15800
C4118       C  0.90635645  0.55627540  0.61436286    -0.18600
C4119       C  0.92970671  0.56727250  0.64481691    -0.20500
C4120       C  0.95041256  0.56823760  0.65450244    -0.13000
C4121       C  0.96836362  0.55784634  0.64466126     0.03600
C4122       C  0.96535236  0.54636143  0.62504508    -0.25200
H4123       H  0.92049201  0.52869007  0.56800731     0.08700
H4124       H  0.95597004  0.52783377  0.58658575     0.12300
H4125       H  0.89240942  0.56416666  0.62192927     0.12300
H4126       H  0.91610638  0.57546225  0.65265826     0.12000
H4127       H  0.95244212  0.57724123  0.66960657     0.12600
H4128       H  0.97919995  0.53861445  0.61715000     0.14500
C4129       C  0.96315269  0.68857262  0.92382392    -0.05500
C4130       C  0.97397294  0.67602662  0.90793116    -0.05400
C4131       C  0.97076814  0.68029346  0.88569155    -0.23600
C4132       C  0.95684429  0.69729735  0.87904809     0.18600
C4133       C  0.94673069  0.71061438  0.89498488     0.15800
C4134       C  0.94987922  0.70612305  0.91722460    -0.18600
C4135       C  0.93313958  0.72786180  0.88844166    -0.20500
C4136       C  0.92876943  0.73129306  0.86631987    -0.13000
C4137       C  0.93781752  0.71747133  0.85035312     0.03600
C4138       C  0.95231580  0.70079883  0.85680729    -0.25200
H4139       H  0.98440824  0.66249380  0.91268590     0.08700
H4140       H  0.97881348  0.67003972  0.87371908     0.12300
H4141       H  0.94176954  0.71612119  0.92938921     0.12300
H4142       H  0.92544019  0.73834524  0.90044687     0.12000
H4143       H  0.91761343  0.74431657  0.86179301     0.12600
H4144       H  0.95957132  0.69019194  0.84462658     0.14500
C4145       C  0.00119638  0.73043572  0.99513813    -0.05500
C4146       C  0.02386535  0.73103127  0.99881352    -0.05400
C4147       C  0.03493510  0.75101839  0.99962366    -0.23600
C4148       C  0.02356631  0.77072192  0.99640330     0.18600
C4149       C  0.00076487  0.77028162  0.99270932     0.15800
C4150       C  0.98971830  0.75020577  0.99233601    -0.18600
C4151       C  0.98943686  0.78990003  0.98904006    -0.20500
C4152       C  0.00062990  0.80979449  0.98876255    -0.13000
C4153       C  0.02333110  0.81048007  0.99235012     0.03600
C4154       C  0.03466445  0.79080823  0.99638693    -0.25200
H4155       H  0.03304163  0.71602707  0.00104030     0.08700
H4156       H  0.05242821  0.75104520  0.00245220     0.12300
H4157       H  0.97225960  0.74996101  0.98924025     0.12300
H4158       H  0.97195834  0.78983765  0.98610831     0.12000
H4159       H  0.99149531  0.82465423  0.98558433     0.12600
H4160       H  0.05219088  0.79103678  0.99903263     0.14500
C4161       C  0.85046298  0.60569474  0.21696258    -0.05500
C4162       C  0.86630234  0.61842725  0.22771788    -0.05400
C4163       C  0.88857641  0.61507892  0.22378171    -0.23600
C4164       C  0.89539281  0.59879279  0.20918115     0.18600
C4165       C  0.87957297  0.58540142  0.19893999     0.15800
C4166       C  0.85727397  0.58899263  0.20280665    -0.18600
C4167       C  0.88627165  0.56886236  0.18465968    -0.20500
C4168       C  0.90840143  0.56590529  0.18011571    -0.13000
C4169       C  0.92430720  0.57952727  0.18961640     0.03600
C4170       C  0.91767763  0.59585896  0.20436877    -0.25200
H4171       H  0.86145105  0.63143381  0.23868839     0.08700
H4172       H  0.90043655  0.62542891  0.23190270     0.12300
H4173       H  0.84521066  0.57893866  0.19458596     0.12300
H4174       H  0.87437288  0.55836991  0.17677787     0.12000
H4175       H  0.91301131  0.55317901  0.16872480     0.12600
H4176       H  0.92978050  0.60634388  0.21195609     0.14500
C4177       C  0.99911901  0.54204573  0.22861239    -0.05500
C4178       C  0.99882635  0.55435183  0.24800695    -0.05400
C4179       C  0.99943552  0.54397355  0.26835793    -0.23600
C4180       C  0.00047518  0.52111640  0.26965330     0.18600
C4181       C  0.00179261  0.50864189  0.25026036     0.15800
C4182       C  0.00108693  0.51917573  0.22987142    -0.18600
C4183       C  0.00309869  0.48579535  0.25158519    -0.20500
C4184       C  0.00222121  0.47534119  0.27189870    -0.13000
C4185       C  0.99993538  0.48755150  0.29122050     0.03600
C4186       C  0.99954922  0.51050931  0.28997927    -0.25200
H4187       H  0.99730565  0.57199344  0.24747374     0.08700
H4188       H  0.99855311  0.55379448  0.28306555     0.12300
H4189       H  0.00151529  0.50953480  0.21501393     0.12300
H4190       H  0.00427541  0.47598601  0.23689181     0.12000
H4191       H  0.00261724  0.45764181  0.27240756     0.12600
H4192       H  0.99800112  0.52013013  0.30477367     0.14500
C4193       C  0.97657219  0.60176074  0.11380526    -0.05500
C4194       C  0.98080911  0.58948469  0.09490163    -0.05400
C4195       C  0.98108917  0.59949358  0.07445196    -0.23600
C4196       C  0.97673542  0.62187835  0.07252177     0.18600
C4197       C  0.97161515  0.63432992  0.09129073     0.15800
C4198       C  0.97186554  0.62421594  0.11193851    -0.18600
C4199       C  0.96640940  0.65661652  0.08897170    -0.20500
C4200       C  0.96630928  0.66640020  0.06822044    -0.13000
C4201       C  0.97211023  0.65414264  0.04975651     0.03600
C4202       C  0.97733359  0.63194699  0.05203603    -0.25200
H4203       H  0.98470043  0.57222980  0.09600670     0.08700
H4204       H  0.98487251  0.58974807  0.06015461     0.12300
H4205       H  0.96848466  0.63374939  0.12648371     0.12300
H4206       H  0.96225582  0.66638825  0.10313862     0.12000
H4207       H  0.96200353  0.68351224  0.06659842     0.12600
H4208       H  0.98128652  0.62232940  0.03766901     0.14500
C4209       C  0.18169216  0.60626367  0.06812078    -0.05500
C4210       C  0.19898863  0.61127029  0.08238570    -0.05400
C4211       C  0.20418381  0.63296288  0.08702015    -0.23600
C4212       C  0.19190200  0.64999407  0.07776773     0.18600
C4213       C  0.17465914  0.64518361  0.06313379     0.15800
C4214       C  0.16986529  0.62333122  0.05814460    -0.18600
C4215       C  0.16211088  0.66228763  0.05429774    -0.20500
C4216       C  0.16621277  0.68391787  0.06042186    -0.13000
C4217       C  0.18314706  0.68878569  0.07519318     0.03600
C4218       C  0.19619298  0.67171553  0.08345552    -0.25200
H4219       H  0.20843198  0.59837540  0.09009126     0.08700
H4220       H  0.21748413  0.63640183  0.09823300     0.12300
H4221       H  0.15641679  0.61961158  0.04718761     0.12300
H4222       H  0.14884017  0.65890194  0.04303528     0.12000
H4223       H  0.15603408  0.69681320  0.05373153     0.12600
H4224       H  0.20926350  0.67522388  0.09492862     0.14500
C4225       C  0.30011883  0.54269593  0.00304258    -0.05500
C4226       C  0.29957243  0.54576495  0.02582845    -0.05400
C4227       C  0.27989084  0.54424773  0.03729366    -0.23600
C4228       C  0.26033401  0.53978751  0.02617723     0.18600
C4229       C  0.26066064  0.53653265  0.00330296     0.15800
C4230       C  0.28053805  0.53783337  0.99192417    -0.18600
C4231       C  0.24101529  0.53253995  0.99212487    -0.20500
C4232       C  0.22115960  0.53236141  0.00341637    -0.13000
C4233       C  0.22064933  0.53573025  0.02613101     0.03600
C4234       C  0.24039172  0.53907442  0.03747187    -0.25200
H4235       H  0.31435813  0.54955671  0.03481917     0.08700
H4236       H  0.27992547  0.54687312  0.05481776     0.12300
H4237       H  0.28064750  0.53551022  0.97435239     0.12300
H4238       H  0.24095297  0.53001238  0.97458776     0.12000
H4239       H  0.20615489  0.52975900  0.99435410     0.12600
H4240       H  0.24015863  0.54199107  0.05495825     0.14500
C4241       C  0.10792833  0.55374845  0.09129561    -0.05500
C4242       C  0.08805376  0.55034520  0.08028171    -0.05400
C4243       C  0.06821166  0.55221781  0.09131455    -0.23600
C4244       C  0.06786847  0.55795631  0.11348177     0.18600
C4245       C  0.08768625  0.56212888  0.12464429     0.15800
C4246       C  0.10766643  0.55965986  0.11354434    -0.18600
C4247       C  0.08707969  0.56872964  0.14665973    -0.20500
C4248       C  0.06702179  0.57097310  0.15751218    -0.13000
C4249       C  0.04742778  0.56603254  0.14665803     0.03600
C4250       C  0.04797776  0.55960628  0.12463599    -0.25200
H4251       H  0.08787747  0.54571305  0.06318638     0.08700
H4252       H  0.05313320  0.54914415  0.08251342     0.12300
H4253       H  0.12293129  0.56254599  0.12209255     0.12300
H4254       H  0.10207660  0.57220133  0.15543544     0.12000
H4255       H  0.06681933  0.57608955  0.17446058     0.12600
H4256       H  0.03280382  0.55622317  0.11607322     0.14500
C4257       C  0.83498457  0.43650927  0.95021682    -0.05500
C4258       C  0.81773543  0.43221281  0.93562887    -0.05400
C4259       C  0.81218412  0.41070178  0.93030662    -0.23600
C4260       C  0.82400675  0.39314356  0.93924268     0.18600
C4261       C  0.84136804  0.39731221  0.95393398     0.15800
C4262       C  0.84658640  0.41891227  0.95948825    -0.18600
C4263       C  0.85345951  0.37982182  0.96258122    -0.20500
C4264       C  0.84857574  0.35836849  0.95654579    -0.13000
C4265       C  0.83135786  0.35399156  0.94194870     0.03600
C4266       C  0.81898632  0.37151717  0.93349934    -0.25200
H4267       H  0.80850005  0.44549914  0.92835115     0.08700
H4268       H  0.79882265  0.40781216  0.91901410     0.12300
H4269       H  0.86002753  0.42201779  0.97064201     0.12300
H4270       H  0.86683340  0.38274272  0.97385069     0.12000
H4271       H  0.85827796  0.34517682  0.96336645     0.12600
H4272       H  0.80571388  0.36838897  0.92215364     0.14500
C4273       C  0.79823098  0.50301089  0.99971606    -0.05500
C4274       C  0.79863673  0.50146964  0.02265491    -0.05400
C4275       C  0.77917476  0.50008062  0.03450069    -0.23600
C4276       C  0.75899243  0.49988097  0.02357688     0.18600
C4277       C  0.75841273  0.50141454  0.00051715     0.15800
C4278       C  0.77798693  0.50321746  0.98877599    -0.18600
C4279       C  0.73828126  0.50072099  0.98954445    -0.20500
C4280       C  0.71886304  0.49848098  0.00130216    -0.13000
C4281       C  0.71921385  0.49711921  0.02425012     0.03600
C4282       C  0.73940432  0.49790545  0.03529333    -0.25200
H4283       H  0.81402911  0.50115956  0.03144140     0.08700
H4284       H  0.77992355  0.49884281  0.05217268     0.12300
H4285       H  0.77745799  0.50405578  0.97106488     0.12300
H4286       H  0.73755856  0.50177967  0.97186032     0.12000
H4287       H  0.70353832  0.49795860  0.99241483     0.12600
H4288       H  0.73992671  0.49669890  0.05298320     0.14500
C4289       C  0.87776023  0.55796822  0.97416610    -0.05500
C4290       C  0.86742807  0.57758668  0.96814302    -0.05400
C4291       C  0.87889860  0.59738588  0.96882060    -0.23600
C4292       C  0.90107187  0.59773423  0.97485448     0.18600
C4293       C  0.91168259  0.57795836  0.98049225     0.15800
C4294       C  0.89986851  0.55832093  0.98051159    -0.18600
C4295       C  0.93402769  0.57808188  0.98566986    -0.20500
C4296       C  0.94575437  0.59766721  0.98548611    -0.13000
C4297       C  0.93527936  0.61752924  0.98050596     0.03600
C4298       C  0.91287327  0.61744373  0.97518561    -0.25200
H4299       H  0.85049600  0.57757630  0.96292095     0.08700
H4300       H  0.87054171  0.61235883  0.96427502     0.12300
H4301       H  0.90812692  0.54314119  0.98460713     0.12300
H4302       H  0.94243699  0.56303154  0.98986559     0.12000
H4303       H  0.96293554  0.59735432  0.98981839     0.12600
H4304       H  0.90467906  0.63267021  0.97118112     0.14500
C4305       C  0.06617392  0.34880230  0.09742297    -0.05500
C4306       C  0.05177902  0.35770831  0.11299043    -0.05400
C4307       C  0.05484421  0.35379378  0.13530001    -0.23600
C4308       C  0.07226956  0.34074335  0.14250219     0.18600
C4309       C  0.08669964  0.33148482  0.12700448     0.15800
C4310       C  0.08365419  0.33567258  0.10461070    -0.18600
C4311       C  0.10393405  0.31815738  0.13416830    -0.20500
C4312       C  0.10682329  0.31398671  0.15644541    -0.13000
C4313       C  0.09273173  0.32329577  0.17201414     0.03600
C4314       C  0.07550075  0.33677965  0.16492056    -0.25200
H4315       H  0.03818558  0.36792161  0.10795290     0.08700
H4316       H  0.04357807  0.36097631  0.14691129     0.12300
H4317       H  0.09484106  0.32864785  0.09281781     0.12300
H4318       H  0.11516982  0.31093863  0.12255098     0.12000
H4319       H  0.12037272  0.30373376  0.16153430     0.12600
H4320       H  0.06452412  0.34400013  0.17679730     0.14500
C4321       C  0.02688686  0.30557112  0.02575984    -0.05500
C4322       C  0.03929303  0.28621543  0.02487211    -0.05400
C4323       C  0.02905010  0.26586042  0.02461108    -0.23600
C4324       C  0.00621465  0.26450404  0.02509768     0.18600
C4325       C  0.99354359  0.28386533  0.02528826     0.15800
C4326       C  0.00395238  0.30427052  0.02568558    -0.18600
C4327       C  0.97068418  0.28246719  0.02547662    -0.20500
C4328       C  0.96048429  0.26206830  0.02597850    -0.13000
C4329       C  0.97298157  0.24275804  0.02648656     0.03600
C4330       C  0.99586899  0.24410198  0.02579053    -0.25200
H4331       H  0.05698865  0.28676121  0.02493795     0.08700
H4332       H  0.03899811  0.25118315  0.02435301     0.12300
H4333       H  0.99420799  0.31908440  0.02623137     0.12300
H4334       H  0.96070981  0.29712885  0.02553856     0.12000
H4335       H  0.94279976  0.26142739  0.02656029     0.12600
H4336       H  0.00564046  0.22929194  0.02600271     0.14500
C4337       C  0.08864257  0.42021509  0.04070400    -0.05500
C4338       C  0.07792849  0.43922401  0.03352795    -0.05400
C4339       C  0.08867400  0.45929228  0.03375823    -0.23600
C4340       C  0.11014480  0.46071736  0.04163294     0.18600
C4341       C  0.12095830  0.44176420  0.04938022     0.15800
C4342       C  0.11023996  0.42149863  0.04849811    -0.18600
C4343       C  0.14215614  0.44353196  0.05807952    -0.20500
C4344       C  0.15241652  0.46395497  0.05928009    -0.13000
C4345       C  0.14186525  0.48270042  0.05117198     0.03600
C4346       C  0.12081043  0.48090248  0.04220563    -0.25200
H4347       H  0.06137550  0.43845378  0.02723033     0.08700
H4348       H  0.08016015  0.47371134  0.02787222     0.12300
H4349       H  0.11851054  0.40683417  0.05414812     0.12300
H4350       H  0.15063269  0.42921190  0.06424682     0.12000
H4351       H  0.16859306  0.46511170  0.06642152     0.12600
H4352       H  0.11237649  0.49541399  0.03637933     0.14500
C4353       C  0.17054082  0.44771948  0.81302682    -0.05500
C4354       C  0.15489486  0.43999550  0.79802031    -0.05400
C4355       C  0.13271536  0.44424785  0.80112153    -0.23600
C4356       C  0.12580761  0.45633343  0.81925247     0.18600
C4357       C  0.14148646  0.46506371  0.83385912     0.15800
C4358       C  0.16373606  0.46072708  0.83064410    -0.18600
C4359       C  0.13460288  0.47747361  0.85179046    -0.20500
C4360       C  0.11235845  0.48060119  0.85562682    -0.13000
C4361       C  0.09666126  0.47119995  0.84171612     0.03600
C4362       C  0.10348220  0.45936429  0.82333309    -0.25200
H4363       H  0.15971680  0.43010397  0.78417188     0.08700
H4364       H  0.12094381  0.43765213  0.78962553     0.12300
H4365       H  0.17565712  0.46699891  0.84218118     0.12300
H4366       H  0.14639093  0.48440679  0.86306765     0.12000
H4367       H  0.10741817  0.48984083  0.86988469     0.12600
H4368       H  0.09143927  0.45233410  0.81237219     0.14500
C4369       C  0.02247220  0.51074572  0.80202908    -0.05500
C4370       C  0.01987225  0.53358497  0.80201283    -0.05400
C4371       C  0.01783650  0.54504432  0.78227427    -0.23600
C4372       C  0.01874018  0.53385778  0.76227554     0.18600
C4373       C  0.02097443  0.51085067  0.76223790     0.15800
C4374       C  0.02256403  0.49947865  0.78204095    -0.18600
C4375       C  0.02228810  0.49958532  0.74238599    -0.20500
C4376       C  0.02218357  0.51105124  0.72267915    -0.13000
C4377       C  0.02052715  0.53398399  0.72243787     0.03600
C4378       C  0.01825519  0.54528155  0.74233421    -0.25200
H4379       H  0.01959058  0.54259130  0.81724106     0.08700
H4380       H  0.01607290  0.56267846  0.78263749     0.12300
H4381       H  0.02466436  0.48186528  0.78181645     0.12300
H4382       H  0.02397512  0.48193807  0.74210881     0.12000
H4383       H  0.02385858  0.50193918  0.70760520     0.12600
H4384       H  0.01706134  0.56297454  0.74237302     0.14500
C4385       C  0.90792616  0.49334443  0.92922322    -0.05500
C4386       C  0.92623382  0.50311307  0.93891999    -0.05400
C4387       C  0.94620483  0.50327310  0.92817975    -0.23600
C4388       C  0.94827518  0.49313791  0.90780583     0.18600
C4389       C  0.92999617  0.48307696  0.89784350     0.15800
C4390       C  0.90964857  0.48365833  0.90848030    -0.18600
C4391       C  0.93264859  0.47223510  0.87776473    -0.20500
C4392       C  0.95331663  0.47108607  0.86793222    -0.13000
C4393       C  0.97135955  0.48129500  0.87779074     0.03600
C4394       C  0.96857865  0.49248931  0.89757813    -0.25200
H4395       H  0.92498686  0.51085179  0.95480513     0.08700
H4396       H  0.96011552  0.51099913  0.93597706     0.12300
H4397       H  0.89545702  0.47604545  0.90107888     0.12300
H4398       H  0.91888128  0.46432348  0.86991909     0.12000
H4399       H  0.95519743  0.46232061  0.85267678     0.12600
H4400       H  0.98248804  0.50009094  0.90553605     0.14500
C4401       C  0.04242359  0.44192181  0.91241660    -0.05500
C4402       C  0.03753946  0.45226624  0.93228277    -0.05400
C4403       C  0.03803796  0.44061351  0.95185021    -0.23600
C4404       C  0.04387208  0.41847978  0.95198036     0.18600
C4405       C  0.04948673  0.40788743  0.93225406     0.15800
C4406       C  0.04838602  0.41963352  0.91244149    -0.18600
C4407       C  0.05620101  0.38585729  0.93286285    -0.20500
C4408       C  0.05740576  0.37457384  0.95287484    -0.13000
C4409       C  0.05119666  0.38500665  0.97232035     0.03600
C4410       C  0.04438153  0.40690098  0.97167462    -0.25200
H4411       H  0.03272830  0.46931871  0.93263289     0.08700
H4412       H  0.03385229  0.44893330  0.96690702     0.12300
H4413       H  0.05230653  0.41156532  0.89717260     0.12300
H4414       H  0.06074889  0.37747935  0.91795210     0.12000
H4415       H  0.06291230  0.35773372  0.95315684     0.12600
H4416       H  0.04009373  0.41519380  0.98674532     0.14500
loop_ 
_geom_bond_atom_site_label_1 
_geom_bond_atom_site_label_2 
_geom_bond_distance 
_geom_bond_site_symmetry_2 
_ccdc_geom_bond_type 
O1           Ni9   1.917       .  S
O1           C11   1.283       .  A
O2           Ni9   1.920       .  S
O2           C12   1.282       .  A
O3           Ni9   1.894       .  S
O3           C13   1.278   1_455  A
O4           Ni9   1.901       .  S
O4           C14   1.278       .  A
O5          Ni10   1.921       .  S
O5           C14   1.283       .  A
O6          Ni10   1.926   1_655  S
O6           C13   1.283       .  A
O7          Ni10   1.907       .  S
O7           C12   1.280       .  A
O8          Ni10   1.916       .  S
O8           C11   1.280       .  A
Ni9         Ni10   2.389       .  S
C11        C4401   1.476       .  S
C12        C4369   1.476       .  S
C13        C4393   1.471       .  S
C14        C4361   1.470       .  S
O15         Ni23   1.914       .  S
O15          C25   1.281       .  A
O16         Ni23   1.916       .  S
O16          C26   1.282       .  A
O17         Ni23   1.908       .  S
O17          C27   1.279       .  A
O18         Ni23   1.901       .  S
O18          C28   1.279   1_554  A
O19         Ni24   1.931   1_556  S
O19          C28   1.283       .  A
O20         Ni24   1.925       .  S
O20          C27   1.284       .  A
O21         Ni24   1.909       .  S
O21          C26   1.280       .  A
O22         Ni24   1.911       .  S
O22          C25   1.279       .  A
Ni23        Ni24   2.389       .  S
C25        C4337   1.468       .  S
C26        C4321   1.476       .  S
C27        C4305   1.481       .  S
C28        C4409   1.472       .  S
O29         Ni37   1.904       .  S
O29          C39   1.279       .  A
O30         Ni37   1.914       .  S
O30          C40   1.281       .  A
O31         Ni37   1.913       .  S
O31          C41   1.281       .  A
O32         Ni37   1.911       .  S
O32          C42   1.280       .  A
O33         Ni38   1.925       .  S
O33          C42   1.283       .  A
O34         Ni38   1.917       .  S
O34          C41   1.282       .  A
O35         Ni38   1.914       .  S
O35          C40   1.281       .  A
O36         Ni38   1.917       .  S
O36          C39   1.280       .  A
Ni37        Ni38   2.390       .  S
C39        C4385   1.461       .  S
C40        C4273   1.477       .  S
C41        C4257   1.478       .  S
C42        C4289   1.476       .  S
O43         Ni51   1.915       .  S
O43          C53   1.282       .  A
O44         Ni51   1.920       .  S
O44          C54   1.282       .  A
O45         Ni51   1.906       .  S
O45          C55   1.280       .  A
O46         Ni51   1.912       .  S
O46          C56   1.280       .  A
O47         Ni52   1.913       .  S
O47          C56   1.281       .  A
O48         Ni52   1.922       .  S
O48          C55   1.282       .  A
O49         Ni52   1.916       .  S
O49          C54   1.281       .  A
O50         Ni52   1.921       .  S
O50          C53   1.282       .  A
Ni51        Ni52   2.389       .  S
C53        C4241   1.477       .  S
C54        C4233   1.478       .  S
C55        C4345   1.471       .  S
C56        C4209   1.473       .  S
O57         Ni65   1.909       .  S
O57          C67   1.281       .  A
O58         Ni65   1.915       .  S
O58          C68   1.282       .  A
O59         Ni65   1.908       .  S
O59          C69   1.280       .  A
O60         Ni65   1.904   1_455  S
O60          C70   1.279       .  A
O61         Ni66   1.931   1_455  S
O61          C70   1.284       .  A
O62         Ni66   1.926       .  S
O62          C69   1.284       .  A
O63         Ni66   1.912       .  S
O63          C68   1.280       .  A
O64         Ni66   1.915       .  S
O64          C67   1.280       .  A
Ni65        Ni66   2.389       .  S
C67        C4193   1.471       .  S
C68        C4177   1.476       .  S
C69        C4169   1.481       .  S
C70        C4249   1.472       .  S
O71         Ni79   1.921       .  S
O71          C81   1.283       .  A
O72         Ni79   1.924   1_455  S
O72          C82   1.283   1_455  A
O73         Ni79   1.902   1_554  S
O73          C83   1.279       .  A
O74         Ni79   1.910       .  S
O74          C84   1.279       .  A
O75         Ni80   1.914       .  S
O75          C84   1.282       .  A
O76         Ni80   1.920   1_554  S
O76          C83   1.281       .  A
O77         Ni80   1.910       .  S
O77          C82   1.280       .  A
O78         Ni80   1.917       .  S
O78          C81   1.281       .  A
Ni79        Ni80   2.390       .  S
C81        C4297   1.479       .  S
C82        C4145   1.479   1_655  S
C83        C4201   1.465       .  S
C84        C4129   1.473       .  S
O85         Ni93   1.912       .  S
O85          C95   1.281       .  A
O86         Ni93   1.918       .  S
O86          C96   1.281       .  A
O87         Ni93   1.913       .  S
O87          C97   1.281       .  A
O88         Ni93   1.903       .  S
O88          C98   1.280       .  A
O89         Ni94   1.921       .  S
O89          C98   1.281       .  A
O90         Ni94   1.916       .  S
O90          C97   1.282       .  A
O91         Ni94   1.912       .  S
O91          C96   1.281       .  A
O92         Ni94   1.915       .  S
O92          C95   1.280       .  A
Ni93        Ni94   2.390       .  S
C95        C4113   1.466       .  S
C96        C4081   1.478       .  S
C97        C4073   1.479       .  S
C98        C4097   1.471       .  S
O99        Ni107   1.907       .  S
O99         C109   1.280       .  A
O100       Ni107   1.912       .  S
O100        C110   1.280       .  A
O101       Ni107   1.904       .  S
O101        C111   1.280       .  A
O102       Ni107   1.911       .  S
O102        C112   1.281       .  A
O103       Ni108   1.917       .  S
O103        C112   1.282       .  A
O104       Ni108   1.924       .  S
O104        C111   1.282       .  A
O105       Ni108   1.912       .  S
O105        C110   1.281       .  A
O106       Ni108   1.918       .  S
O106        C109   1.281       .  A
Ni107      Ni108   2.390       .  S
C109       C4105   1.466       .  S
C110       C4041   1.473       .  S
C111       C4049   1.472       .  S
C112       C4017   1.478       .  S
O113       Ni121   1.907       .  S
O113        C123   1.280       .  A
O114       Ni121   1.913       .  S
O114        C124   1.281       .  A
O115       Ni121   1.913       .  S
O115        C125   1.281       .  A
O116       Ni121   1.908   1_455  S
O116        C126   1.280       .  A
O117       Ni122   1.928   1_455  S
O117        C126   1.283       .  A
O118       Ni122   1.922       .  S
O118        C125   1.283       .  A
O119       Ni122   1.916       .  S
O119        C124   1.281       .  A
O120       Ni122   1.921       .  S
O120        C123   1.281       .  A
Ni121      Ni122   2.389       .  S
C123       C4057   1.469       .  S
C124       C4185   1.478       .  S
C125       C3985   1.480       .  S
C126       C4009   1.475       .  S
O127       Ni135   1.914       .  S
O127        C137   1.281       .  A
O128       Ni135   1.919       .  S
O128        C138   1.282       .  A
O129       Ni135   1.911       .  S
O129        C139   1.280       .  A
O130       Ni135   1.915       .  S
O130        C140   1.282       .  A
O131       Ni136   1.916       .  S
O131        C140   1.281       .  A
O132       Ni136   1.923       .  S
O132        C139   1.282       .  A
O133       Ni136   1.922       .  S
O133        C138   1.283       .  A
O134       Ni136   1.926       .  S
O134        C137   1.282       .  A
Ni135      Ni136   2.388       .  S
C137       C4001   1.476       .  S
C138       C3961   1.485       .  S
C139       C3969   1.474       .  S
C140       C3937   1.480       .  S
O141       Ni149   1.903       .  S
O141        C151   1.279       .  A
O142       Ni149   1.907       .  S
O142        C152   1.280       .  A
O143       Ni149   1.912       .  S
O143        C153   1.281   1_455  A
O144       Ni149   1.916       .  S
O144        C154   1.281       .  A
O145       Ni150   1.906       .  S
O145        C154   1.280       .  A
O146       Ni150   1.913   1_655  S
O146        C153   1.280       .  A
O147       Ni150   1.919       .  S
O147        C152   1.282       .  A
O148       Ni150   1.925       .  S
O148        C151   1.282       .  A
Ni149      Ni150   2.390       .  S
C151       C3921   1.471       .  S
C152       C4377   1.477       .  S
C153       C4121   1.473       .  S
C154       C3905   1.472       .  S
O155       Ni163   1.913       .  S
O155        C165   1.282       .  A
O156       Ni163   1.917       .  S
O156        C166   1.281       .  A
O157       Ni163   1.904       .  S
O157        C167   1.279       .  A
O158       Ni163   1.898       .  S
O158        C168   1.279       .  A
O159       Ni164   1.927       .  S
O159        C168   1.282       .  A
O160       Ni164   1.925       .  S
O160        C167   1.284       .  A
O161       Ni164   1.918       .  S
O161        C166   1.282       .  A
O162       Ni164   1.921       .  S
O162        C165   1.281       .  A
Ni163      Ni164   2.388       .  S
C165       C3977   1.476       .  S
C166       C3889   1.482       .  S
C167       C3873   1.479       .  S
C168       C3929   1.470       .  S
O169       Ni177   1.919       .  S
O169        C179   1.283       .  A
O170       Ni177   1.924       .  S
O170        C180   1.283       .  A
O171       Ni177   1.908       .  S
O171        C181   1.280       .  A
O172       Ni177   1.904       .  S
O172        C182   1.278       .  A
O173       Ni178   1.928       .  S
O173        C182   1.282       .  A
O174       Ni178   1.924       .  S
O174        C181   1.283       .  A
O175       Ni178   1.913       .  S
O175        C180   1.281       .  A
O176       Ni178   1.915       .  S
O176        C179   1.280       .  A
Ni177      Ni178   2.389       .  S
C179       C3865   1.475       .  S
C180       C3833   1.483       .  S
C181       C3809   1.481       .  S
C182       C3841   1.465       .  S
O183       Ni191   1.914       .  S
O183        C193   1.282       .  A
O184       Ni191   1.919   1_554  S
O184        C194   1.282   1_554  A
O185       Ni191   1.911       .  S
O185        C195   1.281       .  A
O186       Ni191   1.912       .  S
O186        C196   1.281       .  A
O187       Ni192   1.918       .  S
O187        C196   1.282       .  A
O188       Ni192   1.919       .  S
O188        C195   1.281       .  A
O189       Ni192   1.916       .  S
O189        C194   1.282       .  A
O190       Ni192   1.920       .  S
O190        C193   1.282       .  A
Ni191      Ni192   2.387       .  S
C193       C3849   1.482       .  S
C194       C4225   1.483   1_556  S
C195       C3793   1.473       .  S
C196       C3777   1.480       .  S
O197       Ni205   1.906       .  S
O197        C207   1.280       .  A
O198       Ni205   1.905       .  S
O198        C208   1.279       .  A
O199       Ni205   1.901       .  S
O199        C209   1.279       .  A
O200       Ni205   1.895   1_554  S
O200        C210   1.278       .  A
O201       Ni206   1.928   1_554  S
O201        C210   1.283       .  A
O202       Ni206   1.924       .  S
O202        C209   1.283       .  A
O203       Ni206   1.917       .  S
O203        C208   1.282       .  A
O204       Ni206   1.923       .  S
O204        C207   1.282       .  A
Ni205      Ni206   2.390       .  S
C207       C3801   1.471       .  S
C208       C3745   1.474       .  S
C209       C3729   1.475       .  S
C210       C3761   1.471       .  S
O211       Ni219   1.908       .  S
O211        C221   1.281       .  A
O212       Ni219   1.912       .  S
O212        C222   1.281       .  A
O213       Ni219   1.900       .  S
O213        C223   1.279       .  A
O214       Ni219   1.906       .  S
O214        C224   1.279       .  A
O215       Ni220   1.918       .  S
O215        C224   1.283       .  A
O216       Ni220   1.926       .  S
O216        C223   1.283       .  A
O217       Ni220   1.913       .  S
O217        C222   1.281       .  A
O218       Ni220   1.916       .  S
O218        C221   1.280       .  A
Ni219      Ni220   2.389       .  S
C221       C3769   1.468       .  S
C222       C3705   1.476       .  S
C223       C3721   1.475       .  S
C224       C3681   1.474       .  S
O225       Ni233   1.909       .  S
O225        C235   1.280       .  A
O226       Ni233   1.916       .  S
O226        C236   1.281       .  A
O227       Ni233   1.905       .  S
O227        C237   1.279   1_554  A
O228       Ni233   1.908       .  S
O228        C238   1.281       .  A
O229       Ni234   1.926       .  S
O229        C238   1.283       .  A
O230       Ni234   1.928   1_556  S
O230        C237   1.283       .  A
O231       Ni234   1.924       .  S
O231        C236   1.283       .  A
O232       Ni234   1.930       .  S
O232        C235   1.283       .  A
Ni233      Ni234   2.388       .  S
C235       C3665   1.476       .  S
C236       C3649   1.484       .  S
C237       C3857   1.473       .  S
C238       C3633   1.480       .  S
O239       Ni247   1.911       .  S
O239        C249   1.281       .  A
O240       Ni247   1.918       .  S
O240        C250   1.282       .  A
O241       Ni247   1.914       .  S
O241        C251   1.280       .  A
O242       Ni247   1.908       .  S
O242        C252   1.280       .  A
O243       Ni248   1.930       .  S
O243        C252   1.283       .  A
O244       Ni248   1.923       .  S
O244        C251   1.283       .  A
O245       Ni248   1.912       .  S
O245        C250   1.281       .  A
O246       Ni248   1.917       .  S
O246        C249   1.280       .  A
Ni247      Ni248   2.389       .  S
C249       C3713   1.468       .  S
C250       C4281   1.478       .  S
C251       C3617   1.480       .  S
C252       C3673   1.477       .  S
O253       Ni261   1.904       .  S
O253        C263   1.279       .  A
O254       Ni261   1.910       .  S
O254        C264   1.280       .  A
O255       Ni261   1.922       .  S
O255        C265   1.283       .  A
O256       Ni261   1.914       .  S
O256        C266   1.282       .  A
O257       Ni262   1.915       .  S
O257        C266   1.280       .  A
O258       Ni262   1.911       .  S
O258        C265   1.280       .  A
O259       Ni262   1.914       .  S
O259        C264   1.282       .  A
O260       Ni262   1.920       .  S
O260        C263   1.281       .  A
Ni261      Ni262   2.390       .  S
C263       C3601   1.465       .  S
C264       C3569   1.475       .  S
C265       C3553   1.479       .  S
C266       C3585   1.473       .  S
O267       Ni275   1.907       .  S
O267        C277   1.280       .  A
O268       Ni275   1.911       .  S
O268        C278   1.280       .  A
O269       Ni275   1.910       .  S
O269        C279   1.281       .  A
O270       Ni275   1.918       .  S
O270        C280   1.282       .  A
O271       Ni276   1.915       .  S
O271        C280   1.282       .  A
O272       Ni276   1.921       .  S
O272        C279   1.281       .  A
O273       Ni276   1.915       .  S
O273        C278   1.282       .  A
O274       Ni276   1.921       .  S
O274        C277   1.281       .  A
Ni275      Ni276   2.389       .  S
C277       C3593   1.471       .  S
C278       C3697   1.475       .  S
C279       C3537   1.474       .  S
C280       C3521   1.480       .  S
O281       Ni289   1.903       .  S
O281        C291   1.279       .  A
O282       Ni289   1.902       .  S
O282        C292   1.279       .  A
O283       Ni289   1.912       .  S
O283        C293   1.280       .  A
O284       Ni289   1.910       .  S
O284        C294   1.280       .  A
O285       Ni290   1.927       .  S
O285        C294   1.283       .  A
O286       Ni290   1.919       .  S
O286        C293   1.281       .  A
O287       Ni290   1.928       .  S
O287        C292   1.283       .  A
O288       Ni290   1.928       .  S
O288        C291   1.283       .  A
Ni289      Ni290   2.388       .  S
C291       C3545   1.474       .  S
C292       C4089   1.480       .  S
C293       C3489   1.471       .  S
C294       C3505   1.477       .  S
O295       Ni303   1.916       .  S
O295        C305   1.280       .  A
O296       Ni303   1.921       .  S
O296        C306   1.282       .  A
O297       Ni303   1.910       .  S
O297        C307   1.280       .  A
O298       Ni303   1.904       .  S
O298        C308   1.280       .  A
O299       Ni304   1.923       .  S
O299        C308   1.282       .  A
O300       Ni304   1.923       .  S
O300        C307   1.282       .  A
O301       Ni304   1.919       .  S
O301        C306   1.282       .  A
O302       Ni304   1.923       .  S
O302        C305   1.281       .  A
Ni303      Ni304   2.388       .  S
C305       C3513   1.470       .  S
C306       C3465   1.482       .  S
C307       C3473   1.476       .  S
C308       C3441   1.476       .  S
O309       Ni317   1.917       .  S
O309        C319   1.282       .  A
O310       Ni317   1.924       .  S
O310        C320   1.283       .  A
O311       Ni317   1.916       .  S
O311        C321   1.281       .  A
O312       Ni317   1.913       .  S
O312        C322   1.281       .  A
O313       Ni318   1.924       .  S
O313        C322   1.283       .  A
O314       Ni318   1.916       .  S
O314        C321   1.282       .  A
O315       Ni318   1.912       .  S
O315        C320   1.280       .  A
O316       Ni318   1.917       .  S
O316        C319   1.281       .  A
Ni317      Ni318   2.388       .  S
C319       C3481   1.474       .  S
C320       C3825   1.481       .  S
C321       C3409   1.476       .  S
C322       C3425   1.478       .  S
O323       Ni331   1.915       .  S
O323        C333   1.281       .  A
O324       Ni331   1.919       .  S
O324        C334   1.282       .  A
O325       Ni331   1.904       .  S
O325        C335   1.279       .  A
O326       Ni331   1.911       .  S
O326        C336   1.281       .  A
O327       Ni332   1.914       .  S
O327        C336   1.281       .  A
O328       Ni332   1.920       .  S
O328        C335   1.282       .  A
O329       Ni332   1.923       .  S
O329        C334   1.283       .  A
O330       Ni332   1.926       .  S
O330        C333   1.282       .  A
Ni331      Ni332   2.389       .  S
C333       C3433   1.476       .  S
C334       C3953   1.482       .  S
C335       C3609   1.471       .  S
C336       C3393   1.477       .  S
O337       Ni345   1.907       .  S
O337        C347   1.280       .  A
O338       Ni345   1.910       .  S
O338        C348   1.280       .  A
O339       Ni345   1.916       .  S
O339        C349   1.281       .  A
O340       Ni345   1.907       .  S
O340        C350   1.281       .  A
O341       Ni346   1.920       .  S
O341        C350   1.282       .  A
O342       Ni346   1.914       .  S
O342        C349   1.282       .  A
O343       Ni346   1.914       .  S
O343        C348   1.281       .  A
O344       Ni346   1.918       .  S
O344        C347   1.281       .  A
Ni345      Ni346   2.389       .  S
C347       C3385   1.470       .  S
C348       C3577   1.472       .  S
C349       C3345   1.479       .  S
C350       C3361   1.476       .  S
O351       Ni359   1.907       .  S
O351        C361   1.279       .  A
O352       Ni359   1.913   1_545  S
O352        C362   1.281       .  A
O353       Ni359   1.918   1_545  S
O353        C363   1.281   1_545  A
O354       Ni359   1.925       .  S
O354        C364   1.283       .  A
O355       Ni360   1.913       .  S
O355        C364   1.281       .  A
O356       Ni360   1.919       .  S
O356        C363   1.281       .  A
O357       Ni360   1.913       .  S
O357        C362   1.281   1_565  A
O358       Ni360   1.920       .  S
O358        C361   1.281       .  A
Ni359      Ni360   2.390       .  S
C361       C3369   1.464       .  S
C362       C3313   1.475       .  S
C363       C3329   1.472       .  S
C364       C3297   1.483       .  S
O365       Ni373   1.910       .  S
O365        C375   1.281       .  A
O366       Ni373   1.918       .  S
O366        C376   1.282       .  A
O367       Ni373   1.914       .  S
O367        C377   1.281       .  A
O368       Ni373   1.914       .  S
O368        C378   1.281       .  A
O369       Ni374   1.912       .  S
O369        C378   1.281       .  A
O370       Ni374   1.914       .  S
O370        C377   1.281       .  A
O371       Ni374   1.923       .  S
O371        C376   1.282       .  A
O372       Ni374   1.926       .  S
O372        C375   1.283       .  A
Ni373      Ni374   2.388       .  S
C375       C3281   1.483       .  S
C376       C3457   1.484       .  S
C377       C3273   1.471       .  S
C378       C3257   1.475       .  S
O379       Ni387   1.914       .  S
O379        C389   1.282       .  A
O380       Ni387   1.918   1_545  S
O380        C390   1.281       .  A
O381       Ni387   1.922       .  S
O381        C391   1.282       .  A
O382       Ni387   1.913   1_545  S
O382        C392   1.279       .  A
O383       Ni388   1.921       .  S
O383        C392   1.281       .  A
O384       Ni388   1.919   1_565  S
O384        C391   1.282       .  A
O385       Ni388   1.919       .  S
O385        C390   1.282       .  A
O386       Ni388   1.922       .  S
O386        C389   1.282   1_545  A
Ni387      Ni388   2.388   1_565  S
C389       C3337   1.479       .  S
C390       C3241   1.481       .  S
C391       C3217   1.484       .  S
C392       C3289   1.465       .  S
O393       Ni401   1.920       .  S
O393        C403   1.282       .  A
O394       Ni401   1.926       .  S
O394        C404   1.284       .  A
O395       Ni401   1.911       .  S
O395        C405   1.280       .  A
O396       Ni401   1.904       .  S
O396        C406   1.278       .  A
O397       Ni402   1.925       .  S
O397        C406   1.282       .  A
O398       Ni402   1.920       .  S
O398        C405   1.283       .  A
O399       Ni402   1.909       .  S
O399        C404   1.280       .  A
O400       Ni402   1.910       .  S
O400        C403   1.280       .  A
Ni401      Ni402   2.389       .  S
C403       C3265   1.474       .  S
C404       C3193   1.479       .  S
C405       C3169   1.480       .  S
C406       C3201   1.464       .  S
O407       Ni415   1.909       .  S
O407        C417   1.281       .  A
O408       Ni415   1.913       .  S
O408        C418   1.281       .  A
O409       Ni415   1.904       .  S
O409        C419   1.279       .  A
O410       Ni415   1.912       .  S
O410        C420   1.280       .  A
O411       Ni416   1.920       .  S
O411        C420   1.283       .  A
O412       Ni416   1.922       .  S
O412        C419   1.282       .  A
O413       Ni416   1.916       .  S
O413        C418   1.281       .  A
O414       Ni416   1.922       .  S
O414        C417   1.282       .  A
Ni415      Ni416   2.389       .  S
C417       C3209   1.478       .  S
C418       C3153   1.475       .  S
C419       C3377   1.467   1_545  S
C420       C3145   1.479       .  S
O421       Ni429   1.917       .  S
O421        C431   1.281       .  A
O422       Ni429   1.920       .  S
O422        C432   1.282       .  A
O423       Ni429   1.911       .  S
O423        C433   1.281   1_554  A
O424       Ni429   1.920       .  S
O424        C434   1.282       .  A
O425       Ni430   1.912       .  S
O425        C434   1.281       .  A
O426       Ni430   1.916   1_556  S
O426        C433   1.281       .  A
O427       Ni430   1.921       .  S
O427        C432   1.283       .  A
O428       Ni430   1.930       .  S
O428        C431   1.284       .  A
Ni429      Ni430   2.388       .  S
C431       C3129   1.484       .  S
C432       C3657   1.482       .  S
C433       C3113   1.471       .  S
C434       C3089   1.478       .  S
O435       Ni443   1.902       .  S
O435        C445   1.279       .  A
O436       Ni443   1.911       .  S
O436        C446   1.280       .  A
O437       Ni443   1.927       .  S
O437        C447   1.284       .  A
O438       Ni443   1.922       .  S
O438        C448   1.282       .  A
O439       Ni444   1.926       .  S
O439        C448   1.283       .  A
O440       Ni444   1.922       .  S
O440        C447   1.283       .  A
O441       Ni444   1.916       .  S
O441        C446   1.282       .  A
O442       Ni444   1.921       .  S
O442        C445   1.281       .  A
Ni443      Ni444   2.388       .  S
C445       C3073   1.464       .  S
C446       C3057   1.477       .  S
C447       C3049   1.488       .  S
C448       C3121   1.480   1_545  S
O449       Ni457   1.914       .  S
O449        C459   1.281       .  A
O450       Ni457   1.923       .  S
O450        C460   1.283       .  A
O451       Ni457   1.904       .  S
O451        C461   1.279       .  A
O452       Ni457   1.900       .  S
O452        C462   1.278       .  A
O453       Ni458   1.931       .  S
O453        C462   1.284       .  A
O454       Ni458   1.927       .  S
O454        C461   1.283       .  A
O455       Ni458   1.912       .  S
O455        C460   1.281       .  A
O456       Ni458   1.912       .  S
O456        C459   1.279       .  A
Ni457      Ni458   2.389       .  S
C459       C3105   1.466       .  S
C460       C3185   1.483       .  S
C461       C3009   1.479       .  S
C462       C3025   1.473       .  S
O463       Ni471   1.909       .  S
O463        C473   1.280       .  A
O464       Ni471   1.911       .  S
O464        C474   1.280       .  A
O465       Ni471   1.911       .  S
O465        C475   1.282       .  A
O466       Ni471   1.912       .  S
O466        C476   1.281       .  A
O467       Ni472   1.915       .  S
O467        C476   1.282       .  A
O468       Ni472   1.914       .  S
O468        C475   1.280       .  A
O469       Ni472   1.916       .  S
O469        C474   1.282       .  A
O470       Ni472   1.921       .  S
O470        C473   1.282       .  A
Ni471      Ni472   2.388       .  S
C473       C3001   1.471       .  S
C474       C3321   1.476       .  S
C475       C3081   1.473       .  S
C476       C2985   1.478       .  S
O477       Ni485   1.915       .  S
O477        C487   1.281       .  A
O478       Ni485   1.913       .  S
O478        C488   1.281       .  A
O479       Ni485   1.914       .  S
O479        C489   1.281       .  A
O480       Ni485   1.907   1_554  S
O480        C490   1.278       .  A
O481       Ni486   1.923   1_554  S
O481        C490   1.282       .  A
O482       Ni486   1.919       .  S
O482        C489   1.282       .  A
O483       Ni486   1.908       .  S
O483        C488   1.281       .  A
O484       Ni486   1.905       .  S
O484        C487   1.278       .  A
Ni485      Ni486   2.390       .  S
C487       C2969   1.462       .  S
C488       C3753   1.474       .  S
C489       C2945   1.480       .  S
C490       C2993   1.463       .  S
O491       Ni499   1.914       .  S
O491        C501   1.281       .  A
O492       Ni499   1.916   1_545  S
O492        C502   1.282       .  A
O493       Ni499   1.899   1_545  S
O493        C503   1.279       .  A
O494       Ni499   1.906       .  S
O494        C504   1.280       .  A
O495       Ni500   1.914   1_565  S
O495        C504   1.281       .  A
O496       Ni500   1.921       .  S
O496        C503   1.282       .  A
O497       Ni500   1.917       .  S
O497        C502   1.281       .  A
O498       Ni500   1.920       .  S
O498        C501   1.281   1_545  A
Ni499      Ni500   2.390   1_565  S
C501       C3033   1.472       .  S
C502       C2929   1.479       .  S
C503       C2961   1.471       .  S
C504       C2913   1.469       .  S
O505       Ni513   1.911       .  S
O505        C515   1.280       .  A
O506       Ni513   1.915       .  S
O506        C516   1.282       .  A
O507       Ni513   1.912       .  S
O507        C517   1.280       .  A
O508       Ni513   1.907       .  S
O508        C518   1.279   1_554  A
O509       Ni514   1.933   1_556  S
O509        C518   1.284       .  A
O510       Ni514   1.924       .  S
O510        C517   1.283       .  A
O511       Ni514   1.907       .  S
O511        C516   1.279       .  A
O512       Ni514   1.912       .  S
O512        C515   1.279       .  A
Ni513      Ni514   2.390       .  S
C515       C2905   1.463       .  S
C516       C4329   1.473       .  S
C517       C2865   1.480       .  S
C518       C2889   1.478       .  S
O519       Ni527   1.918       .  S
O519        C529   1.282       .  A
O520       Ni527   1.921   1_545  S
O520        C530   1.282       .  A
O521       Ni527   1.891   1_545  S
O521        C531   1.277       .  A
O522       Ni527   1.901       .  S
O522        C532   1.278       .  A
O523       Ni528   1.929   1_565  S
O523        C532   1.284       .  A
O524       Ni528   1.932       .  S
O524        C531   1.284       .  A
O525       Ni528   1.914       .  S
O525        C530   1.281       .  A
O526       Ni528   1.917       .  S
O526        C529   1.280   1_545  A
Ni527      Ni528   2.389   1_565  S
C529       C2857   1.470       .  S
C530       C2937   1.481       .  S
C531       C2897   1.471       .  S
C532       C2833   1.478       .  S
O533       Ni541   1.921       .  S
O533        C543   1.283       .  A
O534       Ni541   1.927   1_545  S
O534        C544   1.283   1_545  A
O535       Ni541   1.912       .  S
O535        C545   1.280       .  A
O536       Ni541   1.904       .  S
O536        C546   1.279   1_455  A
O537       Ni542   1.933   1_655  S
O537        C546   1.285       .  A
O538       Ni542   1.930       .  S
O538        C545   1.284       .  A
O539       Ni542   1.910       .  S
O539        C544   1.280       .  A
O540       Ni542   1.913       .  S
O540        C543   1.280       .  A
Ni541      Ni542   2.387       .  S
C543       C2817   1.475       .  S
C544       C2801   1.481   1_565  S
C545       C2785   1.484       .  S
C546       C2849   1.480       .  S
O547       Ni555   1.912       .  S
O547        C557   1.281       .  A
O548       Ni555   1.919       .  S
O548        C558   1.283       .  A
O549       Ni555   1.908   1_554  S
O549        C559   1.280       .  A
O550       Ni555   1.914       .  S
O550        C560   1.281       .  A
O551       Ni556   1.921       .  S
O551        C560   1.283       .  A
O552       Ni556   1.925   1_554  S
O552        C559   1.283       .  A
O553       Ni556   1.915       .  S
O553        C558   1.281       .  A
O554       Ni556   1.919       .  S
O554        C557   1.281       .  A
Ni555      Ni556   2.389       .  S
C557       C2769   1.472       .  S
C558       C4153   1.482       .  S
C559       C2825   1.474       .  S
C560       C2753   1.479       .  S
O561       Ni569   1.909       .  S
O561        C571   1.280       .  A
O562       Ni569   1.916       .  S
O562        C572   1.282       .  A
O563       Ni569   1.920       .  S
O563        C573   1.282       .  A
O564       Ni569   1.913       .  S
O564        C574   1.281       .  A
O565       Ni570   1.919       .  S
O565        C574   1.281       .  A
O566       Ni570   1.914       .  S
O566        C573   1.281       .  A
O567       Ni570   1.912       .  S
O567        C572   1.281       .  A
O568       Ni570   1.918       .  S
O568        C571   1.281       .  A
Ni569      Ni570   2.390       .  S
C571       C2737   1.469       .  S
C572       C3065   1.476   1_556  S
C573       C2721   1.477       .  S
C574       C2777   1.474   1_545  S
O575       Ni583   1.911       .  S
O575        C585   1.281       .  A
O576       Ni583   1.914       .  S
O576        C586   1.281       .  A
O577       Ni583   1.902   1_455  S
O577        C587   1.279       .  A
O578       Ni583   1.906       .  S
O578        C588   1.280       .  A
O579       Ni584   1.917       .  S
O579        C588   1.282       .  A
O580       Ni584   1.924   1_455  S
O580        C587   1.282       .  A
O581       Ni584   1.924       .  S
O581        C586   1.283       .  A
O582       Ni584   1.929       .  S
O582        C585   1.283       .  A
Ni583      Ni584   2.389       .  S
C585       C2881   1.475       .  S
C586       C2713   1.484       .  S
C587       C2745   1.470       .  S
C588       C2697   1.475       .  S
O589       Ni597   1.912       .  S
O589        C599   1.281       .  A
O590       Ni597   1.917       .  S
O590        C600   1.282       .  A
O591       Ni597   1.915       .  S
O591        C601   1.281       .  A
O592       Ni597   1.906       .  S
O592        C602   1.280   1_455  A
O593       Ni598   1.929   1_655  S
O593        C602   1.283       .  A
O594       Ni598   1.925       .  S
O594        C601   1.284       .  A
O595       Ni598   1.920       .  S
O595        C600   1.282       .  A
O596       Ni598   1.918       .  S
O596        C599   1.281       .  A
Ni597      Ni598   2.388       .  S
C599       C2681   1.471       .  S
C600       C2809   1.482       .  S
C601       C2649   1.486       .  S
C602       C2657   1.475       .  S
O603       Ni611   1.914       .  S
O603        C613   1.281       .  A
O604       Ni611   1.919       .  S
O604        C614   1.282       .  A
O605       Ni611   1.914       .  S
O605        C615   1.281       .  A
O606       Ni611   1.921       .  S
O606        C616   1.282       .  A
O607       Ni612   1.912       .  S
O607        C616   1.281       .  A
O608       Ni612   1.918       .  S
O608        C615   1.281       .  A
O609       Ni612   1.912       .  S
O609        C614   1.281       .  A
O610       Ni612   1.919       .  S
O610        C613   1.281       .  A
Ni611      Ni612   2.389       .  S
C613       C2665   1.471       .  S
C614       C3161   1.480       .  S
C615       C2633   1.472   1_545  S
C616       C2609   1.481       .  S
O617       Ni625   1.906       .  S
O617        C627   1.280       .  A
O618       Ni625   1.912       .  S
O618        C628   1.281       .  A
O619       Ni625   1.914       .  S
O619        C629   1.281       .  A
O620       Ni625   1.905       .  S
O620        C630   1.280       .  A
O621       Ni626   1.930       .  S
O621        C630   1.283       .  A
O622       Ni626   1.925       .  S
O622        C629   1.283       .  A
O623       Ni626   1.921       .  S
O623        C628   1.282       .  A
O624       Ni626   1.925       .  S
O624        C627   1.283       .  A
Ni625      Ni626   2.389       .  S
C627       C2625   1.475       .  S
C628       C3897   1.477       .  S
C629       C2577   1.480       .  S
C630       C2593   1.475       .  S
O631       Ni639   1.903       .  S
O631        C641   1.279       .  A
O632       Ni639   1.909       .  S
O632        C642   1.281       .  A
O633       Ni639   1.909       .  S
O633        C643   1.280       .  A
O634       Ni639   1.914       .  S
O634        C644   1.281       .  A
O635       Ni640   1.914       .  S
O635        C644   1.281       .  A
O636       Ni640   1.920       .  S
O636        C643   1.281       .  A
O637       Ni640   1.914       .  S
O637        C642   1.281       .  A
O638       Ni640   1.917       .  S
O638        C641   1.282       .  A
Ni639      Ni640   2.391       .  S
C641       C2561   1.467       .  S
C642       C4033   1.475       .  S
C643       C2673   1.469       .  S
C644       C2553   1.474       .  S
O645       Ni653   1.911       .  S
O645        C655   1.281       .  A
O646       Ni653   1.913   1_545  S
O646        C656   1.281       .  A
O647       Ni653   1.901       .  S
O647        C657   1.279       .  A
O648       Ni653   1.899   1_545  S
O648        C658   1.278       .  A
O649       Ni654   1.920       .  S
O649        C658   1.281       .  A
O650       Ni654   1.915   1_565  S
O650        C657   1.281       .  A
O651       Ni654   1.923       .  S
O651        C656   1.283       .  A
O652       Ni654   1.930       .  S
O652        C655   1.284   1_545  A
Ni653      Ni654   2.389   1_565  S
C655       C2537   1.481       .  S
C656       C3233   1.481       .  S
C657       C2513   1.473       .  S
C658       C2569   1.464       .  S
O659       Ni667   1.911       .  S
O659        C669   1.281       .  A
O660       Ni667   1.921       .  S
O660        C670   1.282       .  A
O661       Ni667   1.913   1_455  S
O661        C671   1.280       .  A
O662       Ni667   1.920       .  S
O662        C672   1.282       .  A
O663       Ni668   1.919       .  S
O663        C672   1.282       .  A
O664       Ni668   1.926   1_455  S
O664        C671   1.282       .  A
O665       Ni668   1.918       .  S
O665        C670   1.282       .  A
O666       Ni668   1.924       .  S
O666        C669   1.282       .  A
Ni667      Ni668   2.388       .  S
C669       C2601   1.474       .  S
C670       C2705   1.481       .  S
C671       C2529   1.473       .  S
C672       C2497   1.483       .  S
O673       Ni681   1.908       .  S
O673        C683   1.280       .  A
O674       Ni681   1.916       .  S
O674        C684   1.282       .  A
O675       Ni681   1.911       .  S
O675        C685   1.280       .  A
O676       Ni681   1.904       .  S
O676        C686   1.279       .  A
O677       Ni682   1.926       .  S
O677        C686   1.282       .  A
O678       Ni682   1.921       .  S
O678        C685   1.283       .  A
O679       Ni682   1.913       .  S
O679        C684   1.281       .  A
O680       Ni682   1.914       .  S
O680        C683   1.281       .  A
Ni681      Ni682   2.390       .  S
C683       C2481   1.470       .  S
C684       C2457   1.478       .  S
C685       C3817   1.476       .  S
C686       C2465   1.471       .  S
O687       Ni695   1.917       .  S
O687        C697   1.282       .  A
O688       Ni695   1.923       .  S
O688        C698   1.283       .  A
O689       Ni695   1.902       .  S
O689        C699   1.279       .  A
O690       Ni695   1.906       .  S
O690        C700   1.279       .  A
O691       Ni696   1.920       .  S
O691        C700   1.283       .  A
O692       Ni696   1.927       .  S
O692        C699   1.283       .  A
O693       Ni696   1.912       .  S
O693        C698   1.281       .  A
O694       Ni696   1.914       .  S
O694        C697   1.280       .  A
Ni695      Ni696   2.389       .  S
C697       C2473   1.473       .  S
C698       C2425   1.480       .  S
C699       C2441   1.474       .  S
C700       C4137   1.476       .  S
O701       Ni709   1.911       .  S
O701        C711   1.279       .  A
O702       Ni709   1.914       .  S
O702        C712   1.281       .  A
O703       Ni709   1.910       .  S
O703        C713   1.281       .  A
O704       Ni709   1.915       .  S
O704        C714   1.281       .  A
O705       Ni710   1.920       .  S
O705        C714   1.282       .  A
O706       Ni710   1.921       .  S
O706        C713   1.282       .  A
O707       Ni710   1.919       .  S
O707        C712   1.282       .  A
O708       Ni710   1.927       .  S
O708        C711   1.282       .  A
Ni709      Ni710   2.388       .  S
C711       C2401   1.470       .  S
C712       C2377   1.479       .  S
C713       C3353   1.478       .  S
C714       C2393   1.477       .  S
O715       Ni723   1.909       .  S
O715        C725   1.280       .  A
O716       Ni723   1.917       .  S
O716        C726   1.281       .  A
O717       Ni723   1.907       .  S
O717        C727   1.280       .  A
O718       Ni723   1.913       .  S
O718        C728   1.281       .  A
O719       Ni724   1.908       .  S
O719        C728   1.280       .  A
O720       Ni724   1.914       .  S
O720        C727   1.280       .  A
O721       Ni724   1.927       .  S
O721        C726   1.284       .  A
O722       Ni724   1.928       .  S
O722        C725   1.283       .  A
Ni723      Ni724   2.389       .  S
C725       C2385   1.475       .  S
C726       C2353   1.487       .  S
C727       C2489   1.467       .  S
C728       C2921   1.475       .  S
O729       Ni737   1.915       .  S
O729        C739   1.281       .  A
O730       Ni737   1.921       .  S
O730        C740   1.282       .  A
O731       Ni737   1.915       .  S
O731        C741   1.281       .  A
O732       Ni737   1.908       .  S
O732        C742   1.281       .  A
O733       Ni738   1.920       .  S
O733        C742   1.281       .  A
O734       Ni738   1.913       .  S
O734        C741   1.281       .  A
O735       Ni738   1.914       .  S
O735        C740   1.281       .  A
O736       Ni738   1.917       .  S
O736        C739   1.281       .  A
Ni737      Ni738   2.389       .  S
C739       C2433   1.469       .  S
C740       C2329   1.481       .  S
C741       C4065   1.475       .  S
C742       C2337   1.474       .  S
O743       Ni751   1.908       .  S
O743        C753   1.280       .  A
O744       Ni751   1.908       .  S
O744        C754   1.280       .  A
O745       Ni751   1.914       .  S
O745        C755   1.280       .  A
O746       Ni751   1.921       .  S
O746        C756   1.283       .  A
O747       Ni752   1.919       .  S
O747        C756   1.282       .  A
O748       Ni752   1.925       .  S
O748        C755   1.283       .  A
O749       Ni752   1.925       .  S
O749        C754   1.283       .  A
O750       Ni752   1.921       .  S
O750        C753   1.281       .  A
Ni751      Ni752   2.389       .  S
C753       C2345   1.468       .  S
C754       C2313   1.477       .  S
C755       C2409   1.475       .  S
C756       C2505   1.483       .  S
O757       Ni765   1.910       .  S
O757        C767   1.281       .  A
O758       Ni765   1.916       .  S
O758        C768   1.281       .  A
O759       Ni765   1.914       .  S
O759        C769   1.280       .  A
O760       Ni765   1.909       .  S
O760        C770   1.281       .  A
O761       Ni766   1.914       .  S
O761        C770   1.280       .  A
O762       Ni766   1.904       .  S
O762        C769   1.279       .  A
O763       Ni766   1.919       .  S
O763        C768   1.282       .  A
O764       Ni766   1.928       .  S
O764        C767   1.283       .  A
Ni765      Ni766   2.390       .  S
C767       C2297   1.477       .  S
C768       C2265   1.479       .  S
C769       C2521   1.466       .  S
C770       C2273   1.469       .  S
O771       Ni779   1.906       .  S
O771        C781   1.279       .  A
O772       Ni779   1.907       .  S
O772        C782   1.280       .  A
O773       Ni779   1.902       .  S
O773        C783   1.279       .  A
O774       Ni779   1.908       .  S
O774        C784   1.280       .  A
O775       Ni780   1.914       .  S
O775        C784   1.281       .  A
O776       Ni780   1.921       .  S
O776        C783   1.282       .  A
O777       Ni780   1.918       .  S
O777        C782   1.281       .  A
O778       Ni780   1.922       .  S
O778        C781   1.282       .  A
Ni779      Ni780   2.391       .  S
C781       C2281   1.468       .  S
C782       C2233   1.474       .  S
C783       C2249   1.470       .  S
C784       C3913   1.473       .  S
O785       Ni793   1.918       .  S
O785        C795   1.282       .  A
O786       Ni793   1.923       .  S
O786        C796   1.283       .  A
O787       Ni793   1.902       .  S
O787        C797   1.279       .  A
O788       Ni793   1.910       .  S
O788        C798   1.280       .  A
O789       Ni794   1.920       .  S
O789        C798   1.282       .  A
O790       Ni794   1.925       .  S
O790        C797   1.283       .  A
O791       Ni794   1.907       .  S
O791        C796   1.279       .  A
O792       Ni794   1.913       .  S
O792        C795   1.281       .  A
Ni793      Ni794   2.390       .  S
C795       C2209   1.474       .  S
C796       C2185   1.477       .  S
C797       C2193   1.470       .  S
C798       C3785   1.474       .  S
O799       Ni807   1.905       .  S
O799        C809   1.279       .  A
O800       Ni807   1.913       .  S
O800        C810   1.281       .  A
O801       Ni807   1.920       .  S
O801        C811   1.283       .  A
O802       Ni807   1.913       .  S
O802        C812   1.281       .  A
O803       Ni808   1.918       .  S
O803        C812   1.281       .  A
O804       Ni808   1.913       .  S
O804        C811   1.281       .  A
O805       Ni808   1.917       .  S
O805        C810   1.282       .  A
O806       Ni808   1.919       .  S
O806        C809   1.281       .  A
Ni807      Ni808   2.390       .  S
C809       C2241   1.462       .  S
C810       C2369   1.477       .  S
C811       C3561   1.482       .  S
C812       C2217   1.472       .  S
O813       Ni821   1.911       .  S
O813        C823   1.281       .  A
O814       Ni821   1.917       .  S
O814        C824   1.282       .  A
O815       Ni821   1.910       .  S
O815        C825   1.280       .  A
O816       Ni821   1.915       .  S
O816        C826   1.281       .  A
O817       Ni822   1.920       .  S
O817        C826   1.283       .  A
O818       Ni822   1.927       .  S
O818        C825   1.283       .  A
O819       Ni822   1.918       .  S
O819        C824   1.281       .  A
O820       Ni822   1.919       .  S
O820        C823   1.281       .  A
Ni821      Ni822   2.388       .  S
C823       C2161   1.471       .  S
C824       C2417   1.482       .  S
C825       C2289   1.475       .  S
C826       C2761   1.482       .  S
O827       Ni835   1.912       .  S
O827        C837   1.281       .  A
O828       Ni835   1.922       .  S
O828        C838   1.282       .  A
O829       Ni835   1.911       .  S
O829        C839   1.280       .  A
O830       Ni835   1.904       .  S
O830        C840   1.279       .  A
O831       Ni836   1.925       .  S
O831        C840   1.282       .  A
O832       Ni836   1.919       .  S
O832        C839   1.283       .  A
O833       Ni836   1.916       .  S
O833        C838   1.282       .  A
O834       Ni836   1.916       .  S
O834        C837   1.280       .  A
Ni835      Ni836   2.389       .  S
C837       C2201   1.469       .  S
C838       C2145   1.484       .  S
C839       C3017   1.478       .  S
C840       C2169   1.471       .  S
O841       Ni849   1.923       .  S
O841        C851   1.283       .  A
O842       Ni849   1.930       .  S
O842        C852   1.285       .  A
O843       Ni849   1.902       .  S
O843        C853   1.278       .  A
O844       Ni849   1.900       .  S
O844        C854   1.278       .  A
O845       Ni850   1.934       .  S
O845        C854   1.284       .  A
O846       Ni850   1.926       .  S
O846        C853   1.284       .  A
O847       Ni850   1.914       .  S
O847        C852   1.281       .  A
O848       Ni850   1.915       .  S
O848        C851   1.280       .  A
Ni849      Ni850   2.388       .  S
C851       C2137   1.476       .  S
C852       C2097   1.488       .  S
C853       C3881   1.473       .  S
C854       C2121   1.473       .  S
O855       Ni863   1.920       .  S
O855        C865   1.282       .  A
O856       Ni863   1.927       .  S
O856        C866   1.284       .  A
O857       Ni863   1.905       .  S
O857        C867   1.279       .  A
O858       Ni863   1.910       .  S
O858        C868   1.280       .  A
O859       Ni864   1.922       .  S
O859        C868   1.282       .  A
O860       Ni864   1.929       .  S
O860        C867   1.284       .  A
O861       Ni864   1.923       .  S
O861        C866   1.283       .  A
O862       Ni864   1.926       .  S
O862        C865   1.282       .  A
Ni863      Ni864   2.388       .  S
C865       C2081   1.477       .  S
C866       C2065   1.489       .  S
C867       C2129   1.475       .  S
C868       C3529   1.478       .  S
O869       Ni877   1.912       .  S
O869        C879   1.281       .  A
O870       Ni877   1.914       .  S
O870        C880   1.282       .  A
O871       Ni877   1.905       .  S
O871        C881   1.279       .  A
O872       Ni877   1.907       .  S
O872        C882   1.280       .  A
O873       Ni878   1.920       .  S
O873        C882   1.282       .  A
O874       Ni878   1.928       .  S
O874        C881   1.283       .  A
O875       Ni878   1.917       .  S
O875        C880   1.281       .  A
O876       Ni878   1.922       .  S
O876        C879   1.281       .  A
Ni877      Ni878   2.388       .  S
C879       C2113   1.474       .  S
C880       C2177   1.480       .  S
C881       C2049   1.477       .  S
C882       C4217   1.477       .  S
O883       Ni891   1.909       .  S
O883        C893   1.280       .  A
O884       Ni891   1.912       .  S
O884        C894   1.281       .  A
O885       Ni891   1.924       .  S
O885        C895   1.283       .  A
O886       Ni891   1.920       .  S
O886        C896   1.282       .  A
O887       Ni892   1.924       .  S
O887        C896   1.283       .  A
O888       Ni892   1.918       .  S
O888        C895   1.282       .  A
O889       Ni892   1.925       .  S
O889        C894   1.283       .  A
O890       Ni892   1.932       .  S
O890        C893   1.283       .  A
Ni891      Ni892   2.387       .  S
C893       C2041   1.475       .  S
C894       C2257   1.483       .  S
C895       C3225   1.485       .  S
C896       C2089   1.485       .  S
O897       Ni905   1.915       .  S
O897        C907   1.282       .  A
O898       Ni905   1.922       .  S
O898        C908   1.282       .  A
O899       Ni905   1.918       .  S
O899        C909   1.282       .  A
O900       Ni905   1.917       .  S
O900        C910   1.281       .  A
O901       Ni906   1.918       .  S
O901        C910   1.282       .  A
O902       Ni906   1.924       .  S
O902        C909   1.282       .  A
O903       Ni906   1.922       .  S
O903        C908   1.283       .  A
O904       Ni906   1.928       .  S
O904        C907   1.283       .  A
Ni905      Ni906   2.386       .  S
C907       C2017   1.486       .  S
C908       C2001   1.486       .  S
C909       C2033   1.482       .  S
C910       C3097   1.479       .  S
O911       Ni919   1.918       .  S
O911        C921   1.282       .  A
O912       Ni919   1.920       .  S
O912        C922   1.282       .  A
O913       Ni919   1.920       .  S
O913        C923   1.282       .  A
O914       Ni919   1.913       .  S
O914        C924   1.279       .  A
O915       Ni920   1.929       .  S
O915        C924   1.282       .  A
O916       Ni920   1.923       .  S
O916        C923   1.283       .  A
O917       Ni920   1.914       .  S
O917        C922   1.281       .  A
O918       Ni920   1.916       .  S
O918        C921   1.280       .  A
Ni919      Ni920   2.389       .  S
C921       C2057   1.471       .  S
C922       C1985   1.481       .  S
C923       C2793   1.486       .  S
C924       C2025   1.469       .  S
O925       Ni933   1.916       .  S
O925        C935   1.282       .  A
O926       Ni933   1.915       .  S
O926        C936   1.282       .  A
O927       Ni933   1.911       .  S
O927        C937   1.280       .  A
O928       Ni933   1.908       .  S
O928        C938   1.280       .  A
O929       Ni934   1.927       .  S
O929        C938   1.284       .  A
O930       Ni934   1.922       .  S
O930        C937   1.283       .  A
O931       Ni934   1.916       .  S
O931        C936   1.281       .  A
O932       Ni934   1.914       .  S
O932        C935   1.280       .  A
Ni933      Ni934   2.387       .  S
C935       C1977   1.473       .  S
C936       C1937   1.481       .  S
C937       C2953   1.478       .  S
C938       C1953   1.479       .  S
O939       Ni947   1.907       .  S
O939        C949   1.280       .  A
O940       Ni947   1.910       .  S
O940        C950   1.280       .  A
O941       Ni947   1.911       .  S
O941        C951   1.281       .  A
O942       Ni947   1.907       .  S
O942        C952   1.280       .  A
O943       Ni948   1.921       .  S
O943        C952   1.281       .  A
O944       Ni948   1.917       .  S
O944        C951   1.281       .  A
O945       Ni948   1.920       .  S
O945        C950   1.282       .  A
O946       Ni948   1.926       .  S
O946        C949   1.283       .  A
Ni947      Ni948   2.389       .  S
C949       C1921   1.479       .  S
C950       C2449   1.477       .  S
C951       C3417   1.478       .  S
C952       C1905   1.470       .  S
O953       Ni961   1.917       .  S
O953        C963   1.280       .  A
O954       Ni961   1.921       .  S
O954        C964   1.282       .  A
O955       Ni961   1.906       .  S
O955        C965   1.279       .  A
O956       Ni961   1.905       .  S
O956        C966   1.279       .  A
O957       Ni962   1.928       .  S
O957        C966   1.284       .  A
O958       Ni962   1.927       .  S
O958        C965   1.282       .  A
O959       Ni962   1.913       .  S
O959        C964   1.281       .  A
O960       Ni962   1.919       .  S
O960        C963   1.280       .  A
Ni961      Ni962   2.389       .  S
C963       C1961   1.466       .  S
C964       C1889   1.480       .  S
C965       C1929   1.470       .  S
C966       C3137   1.482       .  S
O967       Ni975   1.907       .  S
O967        C977   1.280       .  A
O968       Ni975   1.913       .  S
O968        C978   1.281       .  A
O969       Ni975   1.905       .  S
O969        C979   1.280       .  A
O970       Ni975   1.910       .  S
O970        C980   1.280       .  A
O971       Ni976   1.916       .  S
O971        C980   1.282       .  A
O972       Ni976   1.923       .  S
O972        C979   1.282       .  A
O973       Ni976   1.921       .  S
O973        C978   1.283       .  A
O974       Ni976   1.926       .  S
O974        C977   1.282       .  A
Ni975      Ni976   2.389       .  S
C977       C1881   1.472       .  S
C978       C2305   1.481       .  S
C979       C1969   1.472       .  S
C980       C2689   1.475       .  S
O981       Ni989   1.899       .  S
O981        C991   1.278       .  A
O982       Ni989   1.904       .  S
O982        C992   1.279       .  A
O983       Ni989   1.908       .  S
O983        C993   1.281       .  A
O984       Ni989   1.915       .  S
O984        C994   1.281       .  A
O985       Ni990   1.914       .  S
O985        C994   1.281       .  A
O986       Ni990   1.918       .  S
O986        C993   1.281       .  A
O987       Ni990   1.924       .  S
O987        C992   1.283       .  A
O988       Ni990   1.926       .  S
O988        C991   1.283       .  A
Ni989      Ni990   2.389       .  S
C991       C1913   1.469       .  S
C992       C1841   1.476       .  S
C993       C1857   1.475       .  S
C994       C4025   1.477       .  S
O995      Ni1003   1.913       .  S
O995       C1005   1.281       .  A
O996      Ni1003   1.917       .  S
O996       C1006   1.282       .  A
O997      Ni1003   1.913       .  S
O997       C1007   1.281       .  A
O998      Ni1003   1.906       .  S
O998       C1008   1.280       .  A
O999      Ni1004   1.926       .  S
O999       C1008   1.283       .  A
O1000     Ni1004   1.919       .  S
O1000      C1007   1.283       .  A
O1001     Ni1004   1.908       .  S
O1001      C1006   1.280       .  A
O1002     Ni1004   1.913       .  S
O1002      C1005   1.279       .  A
Ni1003    Ni1004   2.390       .  S
C1005      C1865   1.464       .  S
C1006      C1833   1.476       .  S
C1007      C4265   1.479       .  S
C1008      C1873   1.473       .  S
O1009     Ni1017   1.914       .  S
O1009      C1019   1.280       .  A
O1010     Ni1017   1.917       .  S
O1010      C1020   1.282       .  A
O1011     Ni1017   1.913       .  S
O1011      C1021   1.281       .  A
O1012     Ni1017   1.905       .  S
O1012      C1022   1.280       .  A
O1013     Ni1018   1.924       .  S
O1013      C1022   1.283       .  A
O1014     Ni1018   1.918       .  S
O1014      C1021   1.282       .  A
O1015     Ni1018   1.921       .  S
O1015      C1020   1.282       .  A
O1016     Ni1018   1.920       .  S
O1016      C1019   1.282       .  A
Ni1017    Ni1018   2.388       .  S
C1019      C1817   1.473       .  S
C1020      C2153   1.482       .  S
C1021      C3177   1.474       .  S
C1022      C1801   1.480       .  S
O1023     Ni1031   1.907       .  S
O1023      C1033   1.278       .  A
O1024     Ni1031   1.910       .  S
O1024      C1034   1.280       .  A
O1025     Ni1031   1.904       .  S
O1025      C1035   1.280       .  A
O1026     Ni1031   1.909       .  S
O1026      C1036   1.281       .  A
O1027     Ni1032   1.918       .  S
O1027      C1036   1.282       .  A
O1028     Ni1032   1.920       .  S
O1028      C1035   1.281       .  A
O1029     Ni1032   1.918       .  S
O1029      C1034   1.282       .  A
O1030     Ni1032   1.922       .  S
O1030      C1033   1.281       .  A
Ni1031    Ni1032   2.390       .  S
C1033      C1793   1.461       .  S
C1034      C1849   1.477       .  S
C1035      C1777   1.469       .  S
C1036      C2545   1.478       .  S
O1037     Ni1045   1.913       .  S
O1037      C1047   1.281       .  A
O1038     Ni1045   1.921       .  S
O1038      C1048   1.283       .  A
O1039     Ni1045   1.920       .  S
O1039      C1049   1.282       .  A
O1040     Ni1045   1.913       .  S
O1040      C1050   1.281       .  A
O1041     Ni1046   1.912       .  S
O1041      C1050   1.281       .  A
O1042     Ni1046   1.913       .  S
O1042      C1049   1.281       .  A
O1043     Ni1046   1.910       .  S
O1043      C1048   1.280       .  A
O1044     Ni1046   1.913       .  S
O1044      C1047   1.281       .  A
Ni1045    Ni1046   2.389       .  S
C1047      C1769   1.471       .  S
C1048      C1745   1.481       .  S
C1049      C1809   1.477       .  S
C1050      C3401   1.471       .  S
O1051     Ni1059   1.920       .  S
O1051      C1061   1.283       .  A
O1052     Ni1059   1.920       .  S
O1052      C1062   1.282       .  A
O1053     Ni1059   1.915       .  S
O1053      C1063   1.280       .  A
O1054     Ni1059   1.906       .  S
O1054      C1064   1.278       .  A
O1055     Ni1060   1.918       .  S
O1055      C1064   1.280       .  A
O1056     Ni1060   1.910       .  S
O1056      C1063   1.282       .  A
O1057     Ni1060   1.910       .  S
O1057      C1062   1.281       .  A
O1058     Ni1060   1.906       .  S
O1058      C1061   1.278       .  A
Ni1059    Ni1060   2.390       .  S
C1061      C1729   1.470       .  S
C1062      C1945   1.478       .  S
C1063      C3737   1.476       .  S
C1064      C1761   1.459       .  S
O1065     Ni1073   1.922       .  S
O1065      C1075   1.283       .  A
O1066     Ni1073   1.923       .  S
O1066      C1076   1.283       .  A
O1067     Ni1073   1.899       .  S
O1067      C1077   1.278       .  A
O1068     Ni1073   1.904       .  S
O1068      C1078   1.279       .  A
O1069     Ni1074   1.919       .  S
O1069      C1078   1.283       .  A
O1070     Ni1074   1.924       .  S
O1070      C1077   1.282       .  A
O1071     Ni1074   1.908       .  S
O1071      C1076   1.280       .  A
O1072     Ni1074   1.915       .  S
O1072      C1075   1.280       .  A
Ni1073    Ni1074   2.389       .  S
C1075      C1721   1.478       .  S
C1076      C2225   1.480       .  S
C1077      C1737   1.469       .  S
C1078      C4353   1.475       .  S
O1079     Ni1087   1.905       .  S
O1079      C1089   1.279       .  A
O1080     Ni1087   1.912       .  S
O1080      C1090   1.281       .  A
O1081     Ni1087   1.916       .  S
O1081      C1091   1.282       .  A
O1082     Ni1087   1.912       .  S
O1082      C1092   1.280       .  A
O1083     Ni1088   1.926       .  S
O1083      C1092   1.283       .  A
O1084     Ni1088   1.919       .  S
O1084      C1091   1.282       .  A
O1085     Ni1088   1.917       .  S
O1085      C1090   1.281       .  A
O1086     Ni1088   1.919       .  S
O1086      C1089   1.281       .  A
Ni1087    Ni1088   2.389       .  S
C1089      C1785   1.468       .  S
C1090      C1697   1.475       .  S
C1091      C2729   1.482       .  S
C1092      C1713   1.475       .  S
O1093     Ni1101   1.911       .  S
O1093      C1103   1.281       .  A
O1094     Ni1101   1.921       .  S
O1094      C1104   1.283       .  A
O1095     Ni1101   1.926       .  S
O1095      C1105   1.283       .  A
O1096     Ni1101   1.918       .  S
O1096      C1106   1.281       .  A
O1097     Ni1102   1.924       .  S
O1097      C1106   1.282       .  A
O1098     Ni1102   1.922       .  S
O1098      C1105   1.283       .  A
O1099     Ni1102   1.912       .  S
O1099      C1104   1.281       .  A
O1100     Ni1102   1.916       .  S
O1100      C1103   1.281       .  A
Ni1101    Ni1102   2.388       .  S
C1103      C1681   1.472       .  S
C1104      C1705   1.481       .  S
C1105      C3041   1.487       .  S
C1106      C1665   1.475       .  S
O1107     Ni1115   1.927       .  S
O1107      C1117   1.284       .  A
O1108     Ni1115   1.932       .  S
O1108      C1118   1.284       .  A
O1109     Ni1115   1.898       .  S
O1109      C1119   1.278       .  A
O1110     Ni1115   1.902       .  S
O1110      C1120   1.278       .  A
O1111     Ni1116   1.922       .  S
O1111      C1120   1.283       .  A
O1112     Ni1116   1.929       .  S
O1112      C1119   1.283       .  A
O1113     Ni1116   1.916       .  S
O1113      C1118   1.282       .  A
O1114     Ni1116   1.918       .  S
O1114      C1117   1.281       .  A
Ni1115    Ni1116   2.387       .  S
C1117      C1673   1.484       .  S
C1118      C2073   1.490       .  S
C1119      C1649   1.471       .  S
C1120      C3689   1.475       .  S
O1121     Ni1129   1.911       .  S
O1121      C1131   1.281       .  A
O1122     Ni1129   1.920       .  S
O1122      C1132   1.283       .  A
O1123     Ni1129   1.919       .  S
O1123      C1133   1.281       .  A
O1124     Ni1129   1.912       .  S
O1124      C1134   1.280       .  A
O1125     Ni1130   1.927       .  S
O1125      C1134   1.283       .  A
O1126     Ni1130   1.923       .  S
O1126      C1133   1.283       .  A
O1127     Ni1130   1.914       .  S
O1127      C1132   1.281       .  A
O1128     Ni1130   1.919       .  S
O1128      C1131   1.281       .  A
Ni1129    Ni1130   2.389       .  S
C1131      C1641   1.471       .  S
C1132      C1993   1.480       .  S
C1133      C2641   1.480       .  S
C1134      C1625   1.477       .  S
O1135     Ni1143   1.914       .  S
O1135      C1145   1.281       .  A
O1136     Ni1143   1.920       .  S
O1136      C1146   1.282       .  A
O1137     Ni1143   1.909       .  S
O1137      C1147   1.280       .  A
O1138     Ni1143   1.915       .  S
O1138      C1148   1.282       .  A
O1139     Ni1144   1.911       .  S
O1139      C1148   1.281       .  A
O1140     Ni1144   1.920       .  S
O1140      C1147   1.281       .  A
O1141     Ni1144   1.924       .  S
O1141      C1146   1.282       .  A
O1142     Ni1144   1.928       .  S
O1142      C1145   1.283       .  A
Ni1143    Ni1144   2.389       .  S
C1145      C1617   1.478       .  S
C1146      C1609   1.481       .  S
C1147      C1689   1.469       .  S
C1148      C3249   1.477       .  S
O1149     Ni1157   1.914       .  S
O1149      C1159   1.281       .  A
O1150     Ni1157   1.921       .  S
O1150      C1160   1.282       .  A
O1151     Ni1157   1.910       .  S
O1151      C1161   1.280       .  A
O1152     Ni1157   1.906       .  S
O1152      C1162   1.279       .  A
O1153     Ni1158   1.930       .  S
O1153      C1162   1.283       .  A
O1154     Ni1158   1.923       .  S
O1154      C1161   1.283       .  A
O1155     Ni1158   1.914       .  S
O1155      C1160   1.281       .  A
O1156     Ni1158   1.917       .  S
O1156      C1159   1.281       .  A
Ni1157    Ni1158   2.389       .  S
C1159      C1657   1.472       .  S
C1160      C1577   1.481       .  S
C1161      C4313   1.477       .  S
C1162      C1593   1.476       .  S
O1163     Ni1171   1.913       .  S
O1163      C1173   1.281       .  A
O1164     Ni1171   1.920       .  S
O1164      C1174   1.282       .  A
O1165     Ni1171   1.910       .  S
O1165      C1175   1.280       .  A
O1166     Ni1171   1.917       .  S
O1166      C1176   1.281       .  A
O1167     Ni1172   1.913       .  S
O1167      C1176   1.281       .  A
O1168     Ni1172   1.919       .  S
O1168      C1175   1.281       .  A
O1169     Ni1172   1.913       .  S
O1169      C1174   1.281       .  A
O1170     Ni1172   1.922       .  S
O1170      C1173   1.281       .  A
Ni1171    Ni1172   2.390       .  S
C1173      C1585   1.474       .  S
C1174      C1753   1.476       .  S
C1175      C1633   1.471       .  S
C1176      C3945   1.475       .  S
O1177     Ni1185   1.919       .  S
O1177      C1187   1.282       .  A
O1178     Ni1185   1.918       .  S
O1178      C1188   1.282       .  A
O1179     Ni1185   1.905       .  S
O1179      C1189   1.279       .  A
O1180     Ni1185   1.896       .  S
O1180      C1190   1.278       .  A
O1181     Ni1186   1.932       .  S
O1181      C1190   1.284       .  A
O1182     Ni1186   1.930       .  S
O1182      C1189   1.284       .  A
O1183     Ni1186   1.908       .  S
O1183      C1188   1.279       .  A
O1184     Ni1186   1.912       .  S
O1184      C1187   1.280       .  A
Ni1185    Ni1186   2.388       .  S
C1187      C1553   1.475       .  S
C1188      C1825   1.475       .  S
C1189      C3625   1.482       .  S
C1190      C1545   1.475       .  S
O1191     Ni1199   1.921       .  S
O1191      C1201   1.283       .  A
O1192     Ni1199   1.930       .  S
O1192      C1202   1.284       .  A
O1193     Ni1199   1.918       .  S
O1193      C1203   1.281       .  A
O1194     Ni1199   1.921       .  S
O1194      C1204   1.282       .  A
O1195     Ni1200   1.906       .  S
O1195      C1204   1.280       .  A
O1196     Ni1200   1.913       .  S
O1196      C1203   1.280       .  A
O1197     Ni1200   1.915       .  S
O1197      C1202   1.281       .  A
O1198     Ni1200   1.918       .  S
O1198      C1201   1.281       .  A
Ni1199    Ni1200   2.388       .  S
C1201      C1521   1.478       .  S
C1202      C1601   1.488       .  S
C1203      C1561   1.471       .  S
C1204      C3449   1.478       .  S
O1205     Ni1213   1.910       .  S
O1205      C1215   1.280       .  A
O1206     Ni1213   1.919       .  S
O1206      C1216   1.282       .  A
O1207     Ni1213   1.904       .  S
O1207      C1217   1.278       .  A
O1208     Ni1213   1.908       .  S
O1208      C1218   1.280       .  A
O1209     Ni1214   1.921       .  S
O1209      C1218   1.282       .  A
O1210     Ni1214   1.929       .  S
O1210      C1217   1.283       .  A
O1211     Ni1214   1.914       .  S
O1211      C1216   1.281       .  A
O1212     Ni1214   1.918       .  S
O1212      C1215   1.280       .  A
Ni1213    Ni1214   2.391       .  S
C1215      C1537   1.465       .  S
C1216      C1497   1.477       .  S
C1217      C1505   1.470       .  S
C1218      C2977   1.475       .  S
O1219     Ni1227   1.917       .  S
O1219      C1229   1.282       .  A
O1220     Ni1227   1.914       .  S
O1220      C1230   1.281       .  A
O1221     Ni1227   1.918       .  S
O1221      C1231   1.282       .  A
O1222     Ni1227   1.915       .  S
O1222      C1232   1.280       .  A
O1223     Ni1228   1.921       .  S
O1223      C1232   1.282       .  A
O1224     Ni1228   1.918       .  S
O1224      C1231   1.282       .  A
O1225     Ni1228   1.921       .  S
O1225      C1230   1.282       .  A
O1226     Ni1228   1.919       .  S
O1226      C1229   1.281       .  A
Ni1227    Ni1228   2.387       .  S
C1229      C1513   1.481       .  S
C1230      C1569   1.481       .  S
C1231      C2873   1.481       .  S
C1232      C1473   1.472       .  S
O1233     Ni1241   1.908       .  S
O1233      C1243   1.279       .  A
O1234     Ni1241   1.913       .  S
O1234      C1244   1.281       .  A
O1235     Ni1241   1.914       .  S
O1235      C1245   1.281       .  A
O1236     Ni1241   1.911       .  S
O1236      C1246   1.281       .  A
O1237     Ni1242   1.924       .  S
O1237      C1246   1.283       .  A
O1238     Ni1242   1.921       .  S
O1238      C1245   1.282       .  A
O1239     Ni1242   1.922       .  S
O1239      C1244   1.282       .  A
O1240     Ni1242   1.927       .  S
O1240      C1243   1.282       .  A
Ni1241    Ni1242   2.388       .  S
C1243      C1481   1.469       .  S
C1244      C1897   1.479       .  S
C1245      C1457   1.473       .  S
C1246      C2617   1.481       .  S
O1247     Ni1255   1.912       .  S
O1247      C1257   1.281       .  A
O1248     Ni1255   1.922       .  S
O1248      C1258   1.283       .  A
O1249     Ni1255   1.911       .  S
O1249      C1259   1.280       .  A
O1250     Ni1255   1.909       .  S
O1250      C1260   1.280       .  A
O1251     Ni1256   1.927       .  S
O1251      C1260   1.283       .  A
O1252     Ni1256   1.921       .  S
O1252      C1259   1.283       .  A
O1253     Ni1256   1.926       .  S
O1253      C1258   1.283       .  A
O1254     Ni1256   1.925       .  S
O1254      C1257   1.283       .  A
Ni1255    Ni1256   2.387       .  S
C1257      C1465   1.479       .  S
C1258      C1449   1.490       .  S
C1259      C3993   1.479       .  S
C1260      C1529   1.474       .  S
O1261     Ni1269   1.914       .  S
O1261      C1271   1.281       .  A
O1262     Ni1269   1.920       .  S
O1262      C1272   1.283       .  A
O1263     Ni1269   1.903       .  S
O1263      C1273   1.279       .  A
O1264     Ni1269   1.910       .  S
O1264      C1274   1.280       .  A
O1265     Ni1270   1.923       .  S
O1265      C1274   1.283       .  A
O1266     Ni1270   1.930       .  S
O1266      C1273   1.283       .  A
O1267     Ni1270   1.926       .  S
O1267      C1272   1.283       .  A
O1268     Ni1270   1.924       .  S
O1268      C1271   1.282       .  A
Ni1269    Ni1270   2.388       .  S
C1271      C1425   1.477       .  S
C1272      C2361   1.487       .  S
C1273      C1409   1.472       .  S
C1274      C2841   1.480       .  S
O1275     Ni1283   1.910       .  S
O1275      C1285   1.280       .  A
O1276     Ni1283   1.920       .  S
O1276      C1286   1.282       .  A
O1277     Ni1283   1.924       .  S
O1277      C1287   1.283       .  A
O1278     Ni1283   1.917       .  S
O1278      C1288   1.282       .  A
O1279     Ni1284   1.920       .  S
O1279      C1288   1.282       .  A
O1280     Ni1284   1.920       .  S
O1280      C1287   1.282       .  A
O1281     Ni1284   1.914       .  S
O1281      C1286   1.281       .  A
O1282     Ni1284   1.918       .  S
O1282      C1285   1.280       .  A
Ni1283    Ni1284   2.388       .  S
C1285      C1401   1.465       .  S
C1286      C1489   1.482       .  S
C1287      C1377   1.480       .  S
C1288      C3305   1.482       .  S
O1289     Ni1297   1.929       .  S
O1289      C1299   1.284       .  A
O1290     Ni1297   1.935       .  S
O1290      C1300   1.285       .  A
O1291     Ni1297   1.914       .  S
O1291      C1301   1.281       .  A
O1292     Ni1297   1.910       .  S
O1292      C1302   1.280       .  A
O1293     Ni1298   1.929       .  S
O1293      C1302   1.283       .  A
O1294     Ni1298   1.925       .  S
O1294      C1301   1.283       .  A
O1295     Ni1298   1.911       .  S
O1295      C1300   1.280       .  A
O1296     Ni1298   1.915       .  S
O1296      C1299   1.281       .  A
Ni1297    Ni1298   2.386       .  S
C1299      C1385   1.483       .  S
C1300      C2105   1.487       .  S
C1301      C2585   1.484       .  S
C1302      C1433   1.476       .  S
O1303     Ni1311   1.920       .  S
O1303      C1313   1.283       .  A
O1304     Ni1311   1.930       .  S
O1304      C1314   1.284       .  A
O1305     Ni1311   1.914       .  S
O1305      C1315   1.280       .  A
O1306     Ni1311   1.909       .  S
O1306      C1316   1.280       .  A
O1307     Ni1312   1.924       .  S
O1307      C1316   1.282       .  A
O1308     Ni1312   1.918       .  S
O1308      C1315   1.283       .  A
O1309     Ni1312   1.918       .  S
O1309      C1314   1.281       .  A
O1310     Ni1312   1.919       .  S
O1310      C1313   1.281       .  A
Ni1311    Ni1312   2.387       .  S
C1313      C1417   1.480       .  S
C1314      C1441   1.488       .  S
C1315      C4161   1.478       .  S
C1316      C1361   1.475       .  S
O1317     Ni1325   1.916       .  S
O1317      C1327   1.281       .  A
O1318     Ni1325   1.911       .  S
O1318      C1328   1.281       .  A
O1319     Ni1325   1.917       .  S
O1319      C1329   1.282       .  A
O1320     Ni1325   1.910       .  S
O1320      C1330   1.280       .  A
O1321     Ni1326   1.919       .  S
O1321      C1330   1.281       .  A
O1322     Ni1326   1.912       .  S
O1322      C1329   1.281       .  A
O1323     Ni1326   1.925       .  S
O1323      C1328   1.283       .  A
O1324     Ni1326   1.920       .  S
O1324      C1327   1.281       .  A
Ni1325    Ni1326   2.388       .  S
C1327      C1353   1.474       .  S
C1328      C2321   1.481       .  S
C1329      C3497   1.480       .  S
C1330      C1393   1.469       .  S
O1331     Ni1339   1.911       .  S
O1331      C1341   1.281       .  A
O1332     Ni1339   1.919       .  S
O1332      C1342   1.281       .  A
O1333     Ni1339   1.919       .  S
O1333      C1343   1.282       .  A
O1334     Ni1339   1.918       .  S
O1334      C1344   1.281       .  A
O1335     Ni1340   1.916       .  S
O1335      C1344   1.281       .  A
O1336     Ni1340   1.926       .  S
O1336      C1343   1.284       .  A
O1337     Ni1340   1.916       .  S
O1337      C1342   1.282       .  A
O1338     Ni1340   1.924       .  S
O1338      C1341   1.282       .  A
Ni1339    Ni1340   2.388       .  S
C1341      C3641   1.480       .  S
C1342      C1345   1.475       .  S
C1343      C2009   1.487       .  S
C1344      C1369   1.472       .  S
C1345      C1346   1.404       .  A
C1345      C1350   1.404       .  A
C1346      C1347   1.401       .  A
C1346      H1355   1.083       .  S
C1347      C1348   1.405       .  A
C1347      H1356   1.083       .  S
C1348      C1354   1.407       .  A
C1348      C1349   1.414       .  A
C1349      C1351   1.401       .  A
C1349      C1350   1.401       .  A
C1350      H1357   1.085       .  S
C1351      C1352   1.395       .  A
C1351      H1358   1.084       .  S
C1352      C1353   1.403       .  A
C1352      H1359   1.083       .  S
C1353      C1354   1.406       .  A
C1354      H1360   1.084       .  S
C1361      C1362   1.403       .  A
C1361      C1366   1.406       .  A
C1362      C1363   1.400       .  A
C1362      H1371   1.083       .  S
C1363      C1364   1.404       .  A
C1363      H1372   1.083       .  S
C1364      C1370   1.405       .  A
C1364      C1365   1.414       .  A
C1365      C1367   1.402       .  A
C1365      C1366   1.401       .  A
C1366      H1373   1.085       .  S
C1367      C1368   1.396       .  A
C1367      H1374   1.084       .  S
C1368      C1369   1.403       .  A
C1368      H1375   1.084       .  S
C1369      C1370   1.405       .  A
C1370      H1376   1.084       .  S
C1377      C1378   1.404       .  A
C1377      C1382   1.407       .  A
C1378      C1379   1.399       .  A
C1378      H1387   1.083       .  S
C1379      C1380   1.404       .  A
C1379      H1388   1.084       .  S
C1380      C1386   1.406       .  A
C1380      C1381   1.414       .  A
C1381      C1383   1.403       .  A
C1381      C1382   1.407       .  A
C1382      H1389   1.084       .  S
C1383      C1384   1.400       .  A
C1383      H1390   1.084       .  S
C1384      C1385   1.405       .  A
C1384      H1391   1.083       .  S
C1385      C1386   1.408       .  A
C1386      H1392   1.084       .  S
C1393      C1394   1.403       .  A
C1393      C1398   1.403       .  A
C1394      C1395   1.397       .  A
C1394      H1403   1.083       .  S
C1395      C1396   1.402       .  A
C1395      H1404   1.083       .  S
C1396      C1402   1.403       .  A
C1396      C1397   1.416       .  A
C1397      C1399   1.402       .  A
C1397      C1398   1.402       .  A
C1398      H1405   1.085       .  S
C1399      C1400   1.396       .  A
C1399      H1406   1.083       .  S
C1400      C1401   1.402       .  A
C1400      H1407   1.084       .  S
C1401      C1402   1.401       .  A
C1402      H1408   1.085       .  S
C1409      C1410   1.402       .  A
C1409      C1414   1.403       .  A
C1410      C1411   1.405       .  A
C1410      H1419   1.083       .  S
C1411      C1412   1.408       .  A
C1411      H1420   1.083       .  S
C1412      C1418   1.408       .  A
C1412      C1413   1.413       .  A
C1413      C1415   1.400       .  A
C1413      C1414   1.398       .  A
C1414      H1421   1.085       .  S
C1415      C1416   1.394       .  A
C1415      H1422   1.084       .  S
C1416      C1417   1.405       .  A
C1416      H1423   1.083       .  S
C1417      C1418   1.411       .  A
C1418      H1424   1.084       .  S
C1425      C1426   1.405       .  A
C1425      C1430   1.407       .  A
C1426      C1427   1.394       .  A
C1426      H1435   1.084       .  S
C1427      C1428   1.401       .  A
C1427      H1436   1.084       .  S
C1428      C1434   1.402       .  A
C1428      C1429   1.414       .  A
C1429      C1431   1.405       .  A
C1429      C1430   1.408       .  A
C1430      H1437   1.084       .  S
C1431      C1432   1.402       .  A
C1431      H1438   1.083       .  S
C1432      C1433   1.403       .  A
C1432      H1439   1.083       .  S
C1433      C1434   1.405       .  A
C1434      H1440   1.085       .  S
C1441      C1442   1.407       .  A
C1441      C1446   1.408       .  A
C1442      C1443   1.402       .  A
C1442      H1451   1.083       .  S
C1443      C1444   1.405       .  A
C1443      H1452   1.083       .  S
C1444      C1450   1.410       .  A
C1444      C1445   1.413       .  A
C1445      C1447   1.402       .  A
C1445      C1446   1.406       .  A
C1446      H1453   1.084       .  S
C1447      C1448   1.398       .  A
C1447      H1454   1.084       .  S
C1448      C1449   1.407       .  A
C1448      H1455   1.083       .  S
C1449      C1450   1.411       .  A
C1450      H1456   1.084       .  S
C1457      C1458   1.404       .  A
C1457      C1462   1.403       .  A
C1458      C1459   1.400       .  A
C1458      H1467   1.083       .  S
C1459      C1460   1.404       .  A
C1459      H1468   1.083       .  S
C1460      C1466   1.407       .  A
C1460      C1461   1.414       .  A
C1461      C1463   1.400       .  A
C1461      C1462   1.402       .  A
C1462      H1469   1.085       .  S
C1463      C1464   1.395       .  A
C1463      H1470   1.084       .  S
C1464      C1465   1.406       .  A
C1464      H1471   1.083       .  S
C1465      C1466   1.407       .  A
C1466      H1472   1.084       .  S
C1473      C1474   1.404       .  A
C1473      C1478   1.402       .  A
C1474      C1475   1.400       .  A
C1474      H1483   1.083       .  S
C1475      C1476   1.403       .  A
C1475      H1484   1.083       .  S
C1476      C1482   1.407       .  A
C1476      C1477   1.416       .  A
C1477      C1479   1.401       .  A
C1477      C1478   1.402       .  A
C1478      H1485   1.085       .  S
C1479      C1480   1.395       .  A
C1479      H1486   1.084       .  S
C1480      C1481   1.403       .  A
C1480      H1487   1.084       .  S
C1481      C1482   1.404       .  A
C1482      H1488   1.084       .  S
C1489      C1490   1.406       .  A
C1489      C1494   1.407       .  A
C1490      C1491   1.399       .  A
C1490      H1499   1.083       .  S
C1491      C1492   1.403   1_565  A
C1491      H1500   1.084       .  S
C1492      C1498   1.404       .  A
C1492      C1493   1.413       .  A
C1493      C1495   1.402       .  A
C1493      C1494   1.402   1_545  A
C1494      H1501   1.084   1_565  S
C1495      C1496   1.397       .  A
C1495      H1502   1.084       .  S
C1496      C1497   1.404       .  A
C1496      H1503   1.083       .  S
C1497      C1498   1.407       .  A
C1498      H1504   1.084       .  S
C1505      C1506   1.401       .  A
C1505      C1510   1.403       .  A
C1506      C1507   1.402       .  A
C1506      H1515   1.083       .  S
C1507      C1508   1.406       .  A
C1507      H1516   1.083       .  S
C1508      C1514   1.406       .  A
C1508      C1509   1.413       .  A
C1509      C1511   1.401       .  A
C1509      C1510   1.400       .  A
C1510      H1517   1.085       .  S
C1511      C1512   1.395       .  A
C1511      H1518   1.084       .  S
C1512      C1513   1.405       .  A
C1512      H1519   1.083       .  S
C1513      C1514   1.409       .  A
C1514      H1520   1.084       .  S
C1521      C1522   1.404       .  A
C1521      C1526   1.408       .  A
C1522      C1523   1.396       .  A
C1522      H1531   1.083       .  S
C1523      C1524   1.402       .  A
C1523      H1532   1.084       .  S
C1524      C1530   1.401       .  A
C1524      C1525   1.413       .  A
C1525      C1527   1.406       .  A
C1525      C1526   1.407       .  A
C1526      H1533   1.084       .  S
C1527      C1528   1.403       .  A
C1527      H1534   1.083       .  S
C1528      C1529   1.403       .  A
C1528      H1535   1.083       .  S
C1529      C1530   1.405       .  A
C1530      H1536   1.085       .  S
C1537      C1538   1.401       .  A
C1537      C1542   1.406       .  A
C1538      C1539   1.391       .  A
C1538      H1547   1.084       .  S
C1539      C1540   1.400       .  A
C1539      H1548   1.084       .  S
C1540      C1546   1.395       .  A
C1540      C1541   1.414       .  A
C1541      C1543   1.406       .  A
C1541      C1542   1.407       .  A
C1542      H1549   1.084       .  S
C1543      C1544   1.403       .  A
C1543      H1550   1.083       .  S
C1544      C1545   1.404       .  A
C1544      H1551   1.083       .  S
C1545      C1546   1.404       .  A
C1546      H1552   1.085       .  S
C1553      C1554   1.405       .  A
C1553      C1558   1.405       .  A
C1554      C1555   1.397       .  A
C1554      H1563   1.083       .  S
C1555      C1556   1.402       .  A
C1555      H1564   1.084       .  S
C1556      C1562   1.403       .  A
C1556      C1557   1.414       .  A
C1557      C1559   1.402       .  A
C1557      C1558   1.403       .  A
C1558      H1565   1.085       .  S
C1559      C1560   1.397       .  A
C1559      H1566   1.084       .  S
C1560      C1561   1.403       .  A
C1560      H1567   1.083       .  S
C1561      C1562   1.404       .  A
C1562      H1568   1.085       .  S
C1569      C1570   1.406       .  A
C1569      C1574   1.408       .  A
C1570      C1571   1.396       .  A
C1570      H1579   1.083       .  S
C1571      C1572   1.401   1_655  A
C1571      H1580   1.084       .  S
C1572      C1578   1.403       .  A
C1572      C1573   1.413       .  A
C1573      C1575   1.403       .  A
C1573      C1574   1.405   1_455  A
C1574      H1581   1.084       .  S
C1575      C1576   1.399       .  A
C1575      H1582   1.084       .  S
C1576      C1577   1.406       .  A
C1576      H1583   1.083       .  S
C1577      C1578   1.406       .  A
C1578      H1584   1.084       .  S
C1585      C1586   1.403       .  A
C1585      C1590   1.408       .  A
C1586      C1587   1.392       .  A
C1586      H1595   1.084       .  S
C1587      C1588   1.400       .  A
C1587      H1596   1.084       .  S
C1588      C1594   1.398       .  A
C1588      C1589   1.414       .  A
C1589      C1591   1.406       .  A
C1589      C1590   1.409       .  A
C1590      H1597   1.084       .  S
C1591      C1592   1.404       .  A
C1591      H1598   1.083       .  S
C1592      C1593   1.404       .  A
C1592      H1599   1.083       .  S
C1593      C1594   1.403       .  A
C1594      H1600   1.085       .  S
C1601      C1602   1.407       .  A
C1601      C1606   1.409       .  A
C1602      C1603   1.401       .  A
C1602      H1611   1.083       .  S
C1603      C1604   1.404       .  A
C1603      H1612   1.084       .  S
C1604      C1610   1.408       .  A
C1604      C1605   1.413       .  A
C1605      C1607   1.403       .  A
C1605      C1606   1.405       .  A
C1606      H1613   1.084       .  S
C1607      C1608   1.398       .  A
C1607      H1614   1.084       .  S
C1608      C1609   1.404       .  A
C1608      H1615   1.083       .  S
C1609      C1610   1.408       .  A
C1610      H1616   1.084       .  S
C1617      C1618   1.405       .  A
C1617      C1622   1.408       .  A
C1618      C1619   1.395       .  A
C1618      H1627   1.084       .  S
C1619      C1620   1.401       .  A
C1619      H1628   1.083       .  S
C1620      C1626   1.402       .  A
C1620      C1621   1.414       .  A
C1621      C1623   1.406       .  A
C1621      C1622   1.409       .  A
C1622      H1629   1.084       .  S
C1623      C1624   1.403       .  A
C1623      H1630   1.083       .  S
C1624      C1625   1.404       .  A
C1624      H1631   1.083       .  S
C1625      C1626   1.405       .  A
C1626      H1632   1.085       .  S
C1633      C1634   1.403       .  A
C1633      C1638   1.404       .  A
C1634      C1635   1.399       .  A
C1634      H1643   1.083       .  S
C1635      C1636   1.404       .  A
C1635      H1644   1.083       .  S
C1636      C1642   1.405       .  A
C1636      C1637   1.414       .  A
C1637      C1639   1.401       .  A
C1637      C1638   1.400       .  A
C1638      H1645   1.085       .  S
C1639      C1640   1.394       .  A
C1639      H1646   1.084       .  S
C1640      C1641   1.404       .  A
C1640      H1647   1.084       .  S
C1641      C1642   1.405       .  A
C1642      H1648   1.084       .  S
C1649      C1650   1.402       .  A
C1649      C1654   1.404       .  A
C1650      C1651   1.403       .  A
C1650      H1659   1.083       .  S
C1651      C1652   1.407       .  A
C1651      H1660   1.083       .  S
C1652      C1658   1.406       .  A
C1652      C1653   1.413       .  A
C1653      C1655   1.401       .  A
C1653      C1654   1.396       .  A
C1654      H1661   1.085       .  S
C1655      C1656   1.393       .  A
C1655      H1662   1.084       .  S
C1656      C1657   1.403       .  A
C1656      H1663   1.084       .  S
C1657      C1658   1.408       .  A
C1658      H1664   1.084       .  S
C1665      C1666   1.403       .  A
C1665      C1670   1.405       .  A
C1666      C1667   1.402       .  A
C1666      H1675   1.083       .  S
C1667      C1668   1.406       .  A
C1667      H1676   1.083       .  S
C1668      C1674   1.408       .  A
C1668      C1669   1.414       .  A
C1669      C1671   1.402       .  A
C1669      C1670   1.404       .  A
C1670      H1677   1.085       .  S
C1671      C1672   1.397       .  A
C1671      H1678   1.084       .  S
C1672      C1673   1.405       .  A
C1672      H1679   1.083       .  S
C1673      C1674   1.410       .  A
C1674      H1680   1.084       .  S
C1681      C1682   1.404       .  A
C1681      C1686   1.405       .  A
C1682      C1683   1.394       .  A
C1682      H1691   1.083       .  S
C1683      C1684   1.401       .  A
C1683      H1692   1.084       .  S
C1684      C1690   1.399       .  A
C1684      C1685   1.414       .  A
C1685      C1687   1.404       .  A
C1685      C1686   1.404       .  A
C1686      H1693   1.084       .  S
C1687      C1688   1.399       .  A
C1687      H1694   1.083       .  S
C1688      C1689   1.402       .  A
C1688      H1695   1.083       .  S
C1689      C1690   1.403       .  A
C1690      H1696   1.085       .  S
C1697      C1698   1.405       .  A
C1697      C1702   1.405       .  A
C1698      C1699   1.397   1_556  A
C1698      H1707   1.083       .  S
C1699      C1700   1.402       .  A
C1699      H1708   1.084       .  S
C1700      C1706   1.404       .  A
C1700      C1701   1.414       .  A
C1701      C1703   1.400       .  A
C1701      C1702   1.402   1_554  A
C1702      H1709   1.085       .  S
C1703      C1704   1.396       .  A
C1703      H1710   1.084   1_554  S
C1704      C1705   1.407       .  A
C1704      H1711   1.083       .  S
C1705      C1706   1.407       .  A
C1706      H1712   1.084       .  S
C1713      C1714   1.403       .  A
C1713      C1718   1.405       .  A
C1714      C1715   1.401       .  A
C1714      H1723   1.083       .  S
C1715      C1716   1.405       .  A
C1715      H1724   1.083       .  S
C1716      C1722   1.406       .  A
C1716      C1717   1.414       .  A
C1717      C1719   1.402       .  A
C1717      C1718   1.402       .  A
C1718      H1725   1.085       .  S
C1719      C1720   1.397       .  A
C1719      H1726   1.083       .  S
C1720      C1721   1.404       .  A
C1720      H1727   1.083       .  S
C1721      C1722   1.408       .  A
C1722      H1728   1.084       .  S
C1729      C1730   1.402       .  A
C1729      C1734   1.407       .  A
C1730      C1731   1.393       .  A
C1730      H1739   1.083       .  S
C1731      C1732   1.401       .  A
C1731      H1740   1.084       .  S
C1732      C1738   1.396       .  A
C1732      C1733   1.413       .  A
C1733      C1735   1.405       .  A
C1733      C1734   1.403       .  A
C1734      H1741   1.084       .  S
C1735      C1736   1.400       .  A
C1735      H1742   1.084       .  S
C1736      C1737   1.403       .  A
C1736      H1743   1.083       .  S
C1737      C1738   1.403       .  A
C1738      H1744   1.085       .  S
C1745      C1746   1.405       .  A
C1745      C1750   1.409       .  A
C1746      C1747   1.397       .  A
C1746      H1755   1.083       .  S
C1747      C1748   1.402       .  A
C1747      H1756   1.084       .  S
C1748      C1754   1.402       .  A
C1748      C1749   1.413       .  A
C1749      C1751   1.404       .  A
C1749      C1750   1.403       .  A
C1750      H1757   1.084       .  S
C1751      C1752   1.399       .  A
C1751      H1758   1.084       .  S
C1752      C1753   1.404       .  A
C1752      H1759   1.083       .  S
C1753      C1754   1.405       .  A
C1754      H1760   1.084       .  S
C1761      C1762   1.400       .  A
C1761      C1766   1.401       .  A
C1762      C1763   1.396       .  A
C1762      H1771   1.083       .  S
C1763      C1764   1.403       .  A
C1763      H1772   1.083       .  S
C1764      C1770   1.401       .  A
C1764      C1765   1.415       .  A
C1765      C1767   1.402       .  A
C1765      C1766   1.401       .  A
C1766      H1773   1.085       .  S
C1767      C1768   1.396       .  A
C1767      H1774   1.083       .  S
C1768      C1769   1.404       .  A
C1768      H1775   1.083       .  S
C1769      C1770   1.404       .  A
C1770      H1776   1.084       .  S
C1777      C1778   1.404       .  A
C1777      C1782   1.401       .  A
C1778      C1779   1.401       .  A
C1778      H1787   1.083       .  S
C1779      C1780   1.405       .  A
C1779      H1788   1.084       .  S
C1780      C1786   1.405       .  A
C1780      C1781   1.414       .  A
C1781      C1783   1.399       .  A
C1781      C1782   1.396       .  A
C1782      H1789   1.085       .  S
C1783      C1784   1.391       .  A
C1783      H1790   1.084       .  S
C1784      C1785   1.403       .  A
C1784      H1791   1.083       .  S
C1785      C1786   1.405       .  A
C1786      H1792   1.084       .  S
C1793      C1794   1.400       .  A
C1793      C1798   1.403       .  A
C1794      C1795   1.392       .  A
C1794      H1803   1.084       .  S
C1795      C1796   1.401       .  A
C1795      H1804   1.084       .  S
C1796      C1802   1.398       .  A
C1796      C1797   1.415       .  A
C1797      C1799   1.404       .  A
C1797      C1798   1.407       .  A
C1798      H1805   1.084       .  S
C1799      C1800   1.401       .  A
C1799      H1806   1.084       .  S
C1800      C1801   1.406       .  A
C1800      H1807   1.083       .  S
C1801      C1802   1.405       .  A
C1802      H1808   1.084       .  S
C1809      C1810   1.405       .  A
C1809      C1814   1.406       .  A
C1810      C1811   1.397       .  A
C1810      H1819   1.083       .  S
C1811      C1812   1.401       .  A
C1811      H1820   1.083       .  S
C1812      C1818   1.404       .  A
C1812      C1813   1.415       .  A
C1813      C1815   1.402       .  A
C1813      C1814   1.404       .  A
C1814      H1821   1.084       .  S
C1815      C1816   1.397       .  A
C1815      H1822   1.084       .  S
C1816      C1817   1.404       .  A
C1816      H1823   1.083       .  S
C1817      C1818   1.403       .  A
C1818      H1824   1.084       .  S
C1825      C1826   1.406       .  A
C1825      C1830   1.404       .  A
C1826      C1827   1.395       .  A
C1826      H1835   1.083       .  S
C1827      C1828   1.401       .  A
C1827      H1836   1.084   1_554  S
C1828      C1834   1.402   1_554  A
C1828      C1829   1.414       .  A
C1829      C1831   1.400       .  A
C1829      C1830   1.401       .  A
C1830      H1837   1.084       .  S
C1831      C1832   1.395       .  A
C1831      H1838   1.084       .  S
C1832      C1833   1.406   1_554  A
C1832      H1839   1.083   1_554  S
C1833      C1834   1.405       .  A
C1834      H1840   1.084       .  S
C1841      C1842   1.406       .  A
C1841      C1846   1.405       .  A
C1842      C1843   1.394       .  A
C1842      H1851   1.083       .  S
C1843      C1844   1.399   1_655  A
C1843      H1852   1.084       .  S
C1844      C1850   1.401       .  A
C1844      C1845   1.415       .  A
C1845      C1847   1.401       .  A
C1845      C1846   1.404   1_455  A
C1846      H1853   1.084       .  S
C1847      C1848   1.397       .  A
C1847      H1854   1.084       .  S
C1848      C1849   1.407       .  A
C1848      H1855   1.083       .  S
C1849      C1850   1.404       .  A
C1850      H1856   1.084       .  S
C1857      C1858   1.405       .  A
C1857      C1862   1.404       .  A
C1858      C1859   1.399       .  A
C1858      H1867   1.083       .  S
C1859      C1860   1.403       .  A
C1859      H1868   1.083       .  S
C1860      C1866   1.404       .  A
C1860      C1861   1.414       .  A
C1861      C1863   1.401       .  A
C1861      C1862   1.398       .  A
C1862      H1869   1.084       .  S
C1863      C1864   1.393       .  A
C1863      H1870   1.083       .  S
C1864      C1865   1.401       .  A
C1864      H1871   1.084       .  S
C1865      C1866   1.404       .  A
C1866      H1872   1.084       .  S
C1873      C1874   1.404       .  A
C1873      C1878   1.402       .  A
C1874      C1875   1.403       .  A
C1874      H1883   1.083       .  S
C1875      C1876   1.406       .  A
C1875      H1884   1.083       .  S
C1876      C1882   1.408       .  A
C1876      C1877   1.415       .  A
C1877      C1879   1.399       .  A
C1877      C1878   1.398       .  A
C1878      H1885   1.085       .  S
C1879      C1880   1.391       .  A
C1879      H1886   1.083       .  S
C1880      C1881   1.403       .  A
C1880      H1887   1.084       .  S
C1881      C1882   1.407       .  A
C1882      H1888   1.084       .  S
C1889      C1890   1.406       .  A
C1889      C1894   1.406       .  A
C1890      C1891   1.399       .  A
C1890      H1899   1.083       .  S
C1891      C1892   1.403       .  A
C1891      H1900   1.083       .  S
C1892      C1898   1.406       .  A
C1892      C1893   1.414       .  A
C1893      C1895   1.401       .  A
C1893      C1894   1.402       .  A
C1894      H1901   1.084       .  S
C1895      C1896   1.395       .  A
C1895      H1902   1.084       .  S
C1896      C1897   1.406       .  A
C1896      H1903   1.083       .  S
C1897      C1898   1.407       .  A
C1898      H1904   1.084       .  S
C1905      C1906   1.404       .  A
C1905      C1910   1.401       .  A
C1906      C1907   1.401       .  A
C1906      H1915   1.083       .  S
C1907      C1908   1.404       .  A
C1907      H1916   1.083       .  S
C1908      C1914   1.406       .  A
C1908      C1909   1.415       .  A
C1909      C1911   1.398       .  A
C1909      C1910   1.397       .  A
C1910      H1917   1.085       .  S
C1911      C1912   1.391       .  A
C1911      H1918   1.084       .  S
C1912      C1913   1.404       .  A
C1912      H1919   1.084       .  S
C1913      C1914   1.405       .  A
C1914      H1920   1.084       .  S
C1921      C1922   1.406       .  A
C1921      C1926   1.408       .  A
C1922      C1923   1.393       .  A
C1922      H1931   1.083       .  S
C1923      C1924   1.399       .  A
C1923      H1932   1.084       .  S
C1924      C1930   1.399       .  A
C1924      C1925   1.414       .  A
C1925      C1927   1.406       .  A
C1925      C1926   1.407       .  A
C1926      H1933   1.084       .  S
C1927      C1928   1.402       .  A
C1927      H1934   1.083       .  S
C1928      C1929   1.403       .  A
C1928      H1935   1.083       .  S
C1929      C1930   1.402       .  A
C1930      H1936   1.085       .  S
C1937      C1938   1.407       .  A
C1937      C1942   1.405       .  A
C1938      C1939   1.399       .  A
C1938      H1947   1.083       .  S
C1939      C1940   1.402       .  A
C1939      H1948   1.084       .  S
C1940      C1946   1.405       .  A
C1940      C1941   1.414       .  A
C1941      C1943   1.400       .  A
C1941      C1942   1.401       .  A
C1942      H1949   1.084       .  S
C1943      C1944   1.394       .  A
C1943      H1950   1.084       .  S
C1944      C1945   1.406       .  A
C1944      H1951   1.083       .  S
C1945      C1946   1.407       .  A
C1946      H1952   1.084       .  S
C1953      C1954   1.405       .  A
C1953      C1958   1.407       .  A
C1954      C1955   1.399       .  A
C1954      H1963   1.083       .  S
C1955      C1956   1.403       .  A
C1955      H1964   1.084       .  S
C1956      C1962   1.405       .  A
C1956      C1957   1.415       .  A
C1957      C1959   1.403       .  A
C1957      C1958   1.403       .  A
C1958      H1965   1.084       .  S
C1959      C1960   1.397       .  A
C1959      H1966   1.084       .  S
C1960      C1961   1.401       .  A
C1960      H1967   1.084       .  S
C1961      C1962   1.403       .  A
C1962      H1968   1.084       .  S
C1969      C1970   1.403       .  A
C1969      C1974   1.404       .  A
C1970      C1971   1.400       .  A
C1970      H1979   1.083       .  S
C1971      C1972   1.405       .  A
C1971      H1980   1.083       .  S
C1972      C1978   1.404       .  A
C1972      C1973   1.413       .  A
C1973      C1975   1.401       .  A
C1973      C1974   1.399       .  A
C1974      H1981   1.085       .  S
C1975      C1976   1.394       .  A
C1975      H1982   1.084       .  S
C1976      C1977   1.403       .  A
C1976      H1983   1.083       .  S
C1977      C1978   1.407       .  A
C1978      H1984   1.084       .  S
C1985      C1986   1.406       .  A
C1985      C1990   1.407       .  A
C1986      C1987   1.399       .  A
C1986      H1995   1.083       .  S
C1987      C1988   1.403   1_565  A
C1987      H1996   1.084       .  S
C1988      C1994   1.404       .  A
C1988      C1989   1.413       .  A
C1989      C1991   1.402       .  A
C1989      C1990   1.402   1_545  A
C1990      H1997   1.084   1_565  S
C1991      C1992   1.396       .  A
C1991      H1998   1.084       .  S
C1992      C1993   1.405       .  A
C1992      H1999   1.083       .  S
C1993      C1994   1.408       .  A
C1994      H2000   1.084       .  S
C2001      C2002   1.407       .  A
C2001      C2006   1.409       .  A
C2002      C2003   1.398       .  A
C2002      H2011   1.083       .  S
C2003      C2004   1.401       .  A
C2003      H2012   1.084       .  S
C2004      C2010   1.407       .  A
C2004      C2005   1.414       .  A
C2005      C2007   1.403       .  A
C2005      C2006   1.409       .  A
C2006      H2013   1.084       .  S
C2007      C2008   1.400       .  A
C2007      H2014   1.084       .  S
C2008      C2009   1.408       .  A
C2008      H2015   1.083       .  S
C2009      C2010   1.407       .  A
C2010      H2016   1.084       .  S
C2017      C2018   1.407       .  A
C2017      C2022   1.410       .  A
C2018      C2019   1.395       .  A
C2018      H2027   1.083       .  S
C2019      C2020   1.400       .  A
C2019      H2028   1.084       .  S
C2020      C2026   1.403       .  A
C2020      C2021   1.415       .  A
C2021      C2023   1.406       .  A
C2021      C2022   1.410       .  A
C2022      H2029   1.084       .  S
C2023      C2024   1.402       .  A
C2023      H2030   1.084       .  S
C2024      C2025   1.402       .  A
C2024      H2031   1.083       .  S
C2025      C2026   1.401       .  A
C2026      H2032   1.085       .  S
C2033      C2034   1.406       .  A
C2033      C2038   1.404       .  A
C2034      C2035   1.404       .  A
C2034      H2043   1.083       .  S
C2035      C2036   1.405       .  A
C2035      H2044   1.083       .  S
C2036      C2042   1.412       .  A
C2036      C2037   1.415       .  A
C2037      C2039   1.400       .  A
C2037      C2038   1.402       .  A
C2038      H2045   1.084       .  S
C2039      C2040   1.393       .  A
C2039      H2046   1.084       .  S
C2040      C2041   1.403       .  A
C2040      H2047   1.084       .  S
C2041      C2042   1.407       .  A
C2042      H2048   1.084       .  S
C2049      C2050   1.404       .  A
C2049      C2054   1.405       .  A
C2050      C2051   1.401       .  A
C2050      H2059   1.083       .  S
C2051      C2052   1.405       .  A
C2051      H2060   1.083       .  S
C2052      C2058   1.406       .  A
C2052      C2053   1.414       .  A
C2053      C2055   1.401       .  A
C2053      C2054   1.400       .  A
C2054      H2061   1.085       .  S
C2055      C2056   1.394       .  A
C2055      H2062   1.084       .  S
C2056      C2057   1.402       .  A
C2056      H2063   1.083       .  S
C2057      C2058   1.406       .  A
C2058      H2064   1.084       .  S
C2065      C2066   1.408       .  A
C2065      C2070   1.408       .  A
C2066      C2067   1.401       .  A
C2066      H2075   1.083       .  S
C2067      C2068   1.403       .  A
C2067      H2076   1.084       .  S
C2068      C2074   1.411       .  A
C2068      C2069   1.414       .  A
C2069      C2071   1.401       .  A
C2069      C2070   1.408       .  A
C2070      H2077   1.084       .  S
C2071      C2072   1.398       .  A
C2071      H2078   1.084       .  S
C2072      C2073   1.408       .  A
C2072      H2079   1.083       .  S
C2073      C2074   1.409       .  A
C2074      H2080   1.084       .  S
C2081      C2082   1.403       .  A
C2081      C2086   1.406       .  A
C2082      C2083   1.397       .  A
C2082      H2091   1.084       .  S
C2083      C2084   1.402       .  A
C2083      H2092   1.083       .  S
C2084      C2090   1.405       .  A
C2084      C2085   1.415       .  A
C2085      C2087   1.404       .  A
C2085      C2086   1.410       .  A
C2086      H2093   1.084       .  S
C2087      C2088   1.401       .  A
C2087      H2094   1.083       .  S
C2088      C2089   1.407       .  A
C2088      H2095   1.083       .  S
C2089      C2090   1.407       .  A
C2090      H2096   1.084       .  S
C2097      C2098   1.409       .  A
C2097      C2102   1.406       .  A
C2098      C2099   1.400   1_455  A
C2098      H2107   1.083       .  S
C2099      C2100   1.402       .  A
C2099      H2108   1.084       .  S
C2100      C2106   1.411       .  A
C2100      C2101   1.415   1_655  A
C2101      C2103   1.400       .  A
C2101      C2102   1.407       .  A
C2102      H2109   1.084       .  S
C2103      C2104   1.396   1_455  A
C2103      H2110   1.084       .  S
C2104      C2105   1.408       .  A
C2104      H2111   1.083       .  S
C2105      C2106   1.408       .  A
C2106      H2112   1.084       .  S
C2113      C2114   1.403       .  A
C2113      C2118   1.409       .  A
C2114      C2115   1.392       .  A
C2114      H2123   1.083       .  S
C2115      C2116   1.400       .  A
C2115      H2124   1.084       .  S
C2116      C2122   1.397       .  A
C2116      C2117   1.413       .  A
C2117      C2119   1.408       .  A
C2117      C2118   1.408       .  A
C2118      H2125   1.084       .  S
C2119      C2120   1.405       .  A
C2119      H2126   1.083       .  S
C2120      C2121   1.403       .  A
C2120      H2127   1.083       .  S
C2121      C2122   1.403       .  A
C2122      H2128   1.085       .  S
C2129      C2130   1.403       .  A
C2129      C2134   1.406       .  A
C2130      C2131   1.401       .  A
C2130      H2139   1.083       .  S
C2131      C2132   1.405       .  A
C2131      H2140   1.084       .  S
C2132      C2138   1.405       .  A
C2132      C2133   1.413       .  A
C2133      C2135   1.403       .  A
C2133      C2134   1.401       .  A
C2134      H2141   1.085       .  S
C2135      C2136   1.397       .  A
C2135      H2142   1.084       .  S
C2136      C2137   1.403       .  A
C2136      H2143   1.083       .  S
C2137      C2138   1.408       .  A
C2138      H2144   1.084       .  S
C2145      C2146   1.407   1_565  A
C2145      C2150   1.409       .  A
C2146      C2147   1.396       .  A
C2146      H2155   1.083       .  S
C2147      C2148   1.400       .  A
C2147      H2156   1.084       .  S
C2148      C2154   1.403       .  A
C2148      C2149   1.413       .  A
C2149      C2151   1.404       .  A
C2149      C2150   1.407   1_545  A
C2150      H2157   1.084       .  S
C2151      C2152   1.400       .  A
C2151      H2158   1.084       .  S
C2152      C2153   1.406       .  A
C2152      H2159   1.083       .  S
C2153      C2154   1.406       .  A
C2154      H2160   1.084       .  S
C2161      C2162   1.403       .  A
C2161      C2166   1.407       .  A
C2162      C2163   1.392       .  A
C2162      H2171   1.084       .  S
C2163      C2164   1.400       .  A
C2163      H2172   1.084       .  S
C2164      C2170   1.396       .  A
C2164      C2165   1.413       .  A
C2165      C2167   1.407       .  A
C2165      C2166   1.406       .  A
C2166      H2173   1.084       .  S
C2167      C2168   1.403       .  A
C2167      H2174   1.083       .  S
C2168      C2169   1.403       .  A
C2168      H2175   1.083       .  S
C2169      C2170   1.403       .  A
C2170      H2176   1.085       .  S
C2177      C2178   1.407       .  A
C2177      C2182   1.406       .  A
C2178      C2179   1.398   1_554  A
C2178      H2187   1.083       .  S
C2179      C2180   1.402       .  A
C2179      H2188   1.084       .  S
C2180      C2186   1.404       .  A
C2180      C2181   1.414   1_556  A
C2181      C2183   1.400       .  A
C2181      C2182   1.402       .  A
C2182      H2189   1.084       .  S
C2183      C2184   1.395   1_554  A
C2183      H2190   1.084       .  S
C2184      C2185   1.406       .  A
C2184      H2191   1.083       .  S
C2185      C2186   1.405       .  A
C2186      H2192   1.084       .  S
C2193      C2194   1.403       .  A
C2193      C2198   1.402       .  A
C2194      C2195   1.400       .  A
C2194      H2203   1.083       .  S
C2195      C2196   1.405       .  A
C2195      H2204   1.084       .  S
C2196      C2202   1.404       .  A
C2196      C2197   1.414       .  A
C2197      C2199   1.400       .  A
C2197      C2198   1.397       .  A
C2198      H2205   1.085       .  S
C2199      C2200   1.393       .  A
C2199      H2206   1.084       .  S
C2200      C2201   1.403       .  A
C2200      H2207   1.084       .  S
C2201      C2202   1.405       .  A
C2202      H2208   1.084       .  S
C2209      C2210   1.404       .  A
C2209      C2214   1.405       .  A
C2210      C2211   1.397       .  A
C2210      H2219   1.083       .  S
C2211      C2212   1.402       .  A
C2211      H2220   1.084       .  S
C2212      C2218   1.402       .  A
C2212      C2213   1.414       .  A
C2213      C2215   1.403       .  A
C2213      C2214   1.403       .  A
C2214      H2221   1.084       .  S
C2215      C2216   1.398       .  A
C2215      H2222   1.084       .  S
C2216      C2217   1.403       .  A
C2216      H2223   1.083       .  S
C2217      C2218   1.405       .  A
C2218      H2224   1.085       .  S
C2225      C2226   1.407       .  A
C2225      C2230   1.407       .  A
C2226      C2227   1.393       .  A
C2226      H2235   1.083       .  S
C2227      C2228   1.399       .  A
C2227      H2236   1.084       .  S
C2228      C2234   1.399       .  A
C2228      C2229   1.414       .  A
C2229      C2231   1.403       .  A
C2229      C2230   1.405       .  A
C2230      H2237   1.084       .  S
C2231      C2232   1.399       .  A
C2231      H2238   1.084       .  S
C2232      C2233   1.405       .  A
C2232      H2239   1.083       .  S
C2233      C2234   1.403       .  A
C2234      H2240   1.085       .  S
C2241      C2242   1.402       .  A
C2241      C2246   1.403       .  A
C2242      C2243   1.391       .  A
C2242      H2251   1.084       .  S
C2243      C2244   1.400       .  A
C2243      H2252   1.084       .  S
C2244      C2250   1.396       .  A
C2244      C2245   1.415       .  A
C2245      C2247   1.404       .  A
C2245      C2246   1.404       .  A
C2246      H2253   1.084       .  S
C2247      C2248   1.400       .  A
C2247      H2254   1.083       .  S
C2248      C2249   1.404       .  A
C2248      H2255   1.083       .  S
C2249      C2250   1.402       .  A
C2250      H2256   1.085       .  S
C2257      C2258   1.407       .  A
C2257      C2262   1.407       .  A
C2258      C2259   1.396       .  A
C2258      H2267   1.083       .  S
C2259      C2260   1.400       .  A
C2259      H2268   1.084       .  S
C2260      C2266   1.404       .  A
C2260      C2261   1.414       .  A
C2261      C2263   1.402       .  A
C2261      C2262   1.406       .  A
C2262      H2269   1.084       .  S
C2263      C2264   1.398       .  A
C2263      H2270   1.083       .  S
C2264      C2265   1.406       .  A
C2264      H2271   1.083       .  S
C2265      C2266   1.405       .  A
C2266      H2272   1.084       .  S
C2273      C2274   1.404       .  A
C2273      C2278   1.402       .  A
C2274      C2275   1.398       .  A
C2274      H2283   1.083       .  S
C2275      C2276   1.403       .  A
C2275      H2284   1.083       .  S
C2276      C2282   1.404       .  A
C2276      C2277   1.415       .  A
C2277      C2279   1.400       .  A
C2277      C2278   1.399       .  A
C2278      H2285   1.085       .  S
C2279      C2280   1.393       .  A
C2279      H2286   1.084       .  S
C2280      C2281   1.404       .  A
C2280      H2287   1.084       .  S
C2281      C2282   1.403       .  A
C2282      H2288   1.084       .  S
C2289      C2290   1.404       .  A
C2289      C2294   1.403       .  A
C2290      C2291   1.403       .  A
C2290      H2299   1.083       .  S
C2291      C2292   1.406       .  A
C2291      H2300   1.083       .  S
C2292      C2298   1.409       .  A
C2292      C2293   1.414       .  A
C2293      C2295   1.399       .  A
C2293      C2294   1.400       .  A
C2294      H2301   1.085       .  S
C2295      C2296   1.393       .  A
C2295      H2302   1.084       .  S
C2296      C2297   1.404       .  A
C2296      H2303   1.083       .  S
C2297      C2298   1.408       .  A
C2298      H2304   1.084       .  S
C2305      C2306   1.407       .  A
C2305      C2310   1.406       .  A
C2306      C2307   1.397       .  A
C2306      H2315   1.083       .  S
C2307      C2308   1.401       .  A
C2307      H2316   1.084       .  S
C2308      C2314   1.405       .  A
C2308      C2309   1.414       .  A
C2309      C2311   1.401   1_545  A
C2309      C2310   1.404       .  A
C2310      H2317   1.084       .  S
C2311      C2312   1.396       .  A
C2311      H2318   1.084       .  S
C2312      C2313   1.406       .  A
C2312      H2319   1.083       .  S
C2313      C2314   1.405   1_565  A
C2314      H2320   1.084       .  S
C2321      C2322   1.406       .  A
C2321      C2326   1.408       .  A
C2322      C2323   1.395       .  A
C2322      H2331   1.083       .  S
C2323      C2324   1.400       .  A
C2323      H2332   1.084       .  S
C2324      C2330   1.402       .  A
C2324      C2325   1.414       .  A
C2325      C2327   1.403       .  A
C2325      C2326   1.407       .  A
C2326      H2333   1.084       .  S
C2327      C2328   1.400       .  A
C2327      H2334   1.084       .  S
C2328      C2329   1.406       .  A
C2328      H2335   1.083       .  S
C2329      C2330   1.406       .  A
C2330      H2336   1.084       .  S
C2337      C2338   1.405       .  A
C2337      C2342   1.402       .  A
C2338      C2339   1.401       .  A
C2338      H2347   1.083       .  S
C2339      C2340   1.404       .  A
C2339      H2348   1.084       .  S
C2340      C2346   1.407       .  A
C2340      C2341   1.415       .  A
C2341      C2343   1.399       .  A
C2341      C2342   1.397       .  A
C2342      H2349   1.085       .  S
C2343      C2344   1.391       .  A
C2343      H2350   1.084       .  S
C2344      C2345   1.403       .  A
C2344      H2351   1.084       .  S
C2345      C2346   1.405       .  A
C2346      H2352   1.084       .  S
C2353      C2354   1.408       .  A
C2353      C2358   1.407       .  A
C2354      C2355   1.400       .  A
C2354      H2363   1.083       .  S
C2355      C2356   1.403   1_556  A
C2355      H2364   1.084       .  S
C2356      C2362   1.409       .  A
C2356      C2357   1.414       .  A
C2357      C2359   1.401       .  A
C2357      C2358   1.406   1_554  A
C2358      H2365   1.084       .  S
C2359      C2360   1.397       .  A
C2359      H2366   1.084       .  S
C2360      C2361   1.406       .  A
C2360      H2367   1.083       .  S
C2361      C2362   1.410       .  A
C2362      H2368   1.084       .  S
C2369      C2370   1.405       .  A
C2369      C2374   1.405       .  A
C2370      C2371   1.397       .  A
C2370      H2379   1.083       .  S
C2371      C2372   1.402       .  A
C2371      H2380   1.084       .  S
C2372      C2378   1.403       .  A
C2372      C2373   1.414       .  A
C2373      C2375   1.401       .  A
C2373      C2374   1.403       .  A
C2374      H2381   1.084       .  S
C2375      C2376   1.397       .  A
C2375      H2382   1.084       .  S
C2376      C2377   1.406       .  A
C2376      H2383   1.083       .  S
C2377      C2378   1.406       .  A
C2378      H2384   1.084       .  S
C2385      C2386   1.404       .  A
C2385      C2390   1.406       .  A
C2386      C2387   1.394       .  A
C2386      H2395   1.084       .  S
C2387      C2388   1.400       .  A
C2387      H2396   1.084       .  S
C2388      C2394   1.401       .  A
C2388      C2389   1.415       .  A
C2389      C2391   1.404       .  A
C2389      C2390   1.408       .  A
C2390      H2397   1.084       .  S
C2391      C2392   1.401       .  A
C2391      H2398   1.083       .  S
C2392      C2393   1.405       .  A
C2392      H2399   1.083       .  S
C2393      C2394   1.403       .  A
C2394      H2400   1.085       .  S
C2401      C2402   1.403       .  A
C2401      C2406   1.403       .  A
C2402      C2403   1.397       .  A
C2402      H2411   1.084       .  S
C2403      C2404   1.402       .  A
C2403      H2412   1.084       .  S
C2404      C2410   1.405       .  A
C2404      C2405   1.416       .  A
C2405      C2407   1.403       .  A
C2405      C2406   1.407       .  A
C2406      H2413   1.084       .  S
C2407      C2408   1.399       .  A
C2407      H2414   1.083       .  S
C2408      C2409   1.404       .  A
C2408      H2415   1.083       .  S
C2409      C2410   1.405       .  A
C2410      H2416   1.084       .  S
C2417      C2418   1.407       .  A
C2417      C2422   1.406       .  A
C2418      C2419   1.399   1_455  A
C2418      H2427   1.083       .  S
C2419      C2420   1.402       .  A
C2419      H2428   1.084       .  S
C2420      C2426   1.406       .  A
C2420      C2421   1.414   1_655  A
C2421      C2423   1.400       .  A
C2421      C2422   1.403       .  A
C2422      H2429   1.084       .  S
C2423      C2424   1.395   1_455  A
C2423      H2430   1.084       .  S
C2424      C2425   1.406       .  A
C2424      H2431   1.083       .  S
C2425      C2426   1.407       .  A
C2426      H2432   1.084       .  S
C2433      C2434   1.403       .  A
C2433      C2438   1.405       .  A
C2434      C2435   1.395       .  A
C2434      H2443   1.084       .  S
C2435      C2436   1.402       .  A
C2435      H2444   1.083       .  S
C2436      C2442   1.399       .  A
C2436      C2437   1.413       .  A
C2437      C2439   1.405       .  A
C2437      C2438   1.404       .  A
C2438      H2445   1.084       .  S
C2439      C2440   1.400       .  A
C2439      H2446   1.083       .  S
C2440      C2441   1.403       .  A
C2440      H2447   1.083       .  S
C2441      C2442   1.406       .  A
C2442      H2448   1.084       .  S
C2449      C2450   1.405       .  A
C2449      C2454   1.406       .  A
C2450      C2451   1.397       .  A
C2450      H2459   1.083       .  S
C2451      C2452   1.402       .  A
C2451      H2460   1.084       .  S
C2452      C2458   1.402       .  A
C2452      C2453   1.413       .  A
C2453      C2455   1.401       .  A
C2453      C2454   1.401       .  A
C2454      H2461   1.084       .  S
C2455      C2456   1.396       .  A
C2455      H2462   1.084       .  S
C2456      C2457   1.406       .  A
C2456      H2463   1.083       .  S
C2457      C2458   1.406       .  A
C2458      H2464   1.084       .  S
C2465      C2466   1.403       .  A
C2465      C2470   1.402       .  A
C2466      C2467   1.403       .  A
C2466      H2475   1.083       .  S
C2467      C2468   1.407       .  A
C2467      H2476   1.083       .  S
C2468      C2474   1.407       .  A
C2468      C2469   1.413       .  A
C2469      C2471   1.400       .  A
C2469      C2470   1.397       .  A
C2470      H2477   1.085       .  S
C2471      C2472   1.392       .  A
C2471      H2478   1.084       .  S
C2472      C2473   1.403       .  A
C2472      H2479   1.083       .  S
C2473      C2474   1.409       .  A
C2474      H2480   1.084       .  S
C2481      C2482   1.404       .  A
C2481      C2486   1.405       .  A
C2482      C2483   1.393       .  A
C2482      H2491   1.083       .  S
C2483      C2484   1.400       .  A
C2483      H2492   1.084       .  S
C2484      C2490   1.397       .  A
C2484      C2485   1.414       .  A
C2485      C2487   1.404       .  A
C2485      C2486   1.402       .  A
C2486      H2493   1.084       .  S
C2487      C2488   1.399       .  A
C2487      H2494   1.083       .  S
C2488      C2489   1.403       .  A
C2488      H2495   1.083       .  S
C2489      C2490   1.402       .  A
C2490      H2496   1.085       .  S
C2497      C2498   1.406       .  A
C2497      C2502   1.408       .  A
C2498      C2499   1.397       .  A
C2498      H2507   1.083       .  S
C2499      C2500   1.401       .  A
C2499      H2508   1.084       .  S
C2500      C2506   1.404       .  A
C2500      C2501   1.413       .  A
C2501      C2503   1.403       .  A
C2501      C2502   1.406       .  A
C2502      H2509   1.084       .  S
C2503      C2504   1.399       .  A
C2503      H2510   1.084       .  S
C2504      C2505   1.407       .  A
C2504      H2511   1.083       .  S
C2505      C2506   1.407       .  A
C2506      H2512   1.084       .  S
C2513      C2514   1.405       .  A
C2513      C2518   1.404       .  A
C2514      C2515   1.397       .  A
C2514      H2523   1.083       .  S
C2515      C2516   1.402       .  A
C2515      H2524   1.083       .  S
C2516      C2522   1.400       .  A
C2516      C2517   1.413       .  A
C2517      C2519   1.400       .  A
C2517      C2518   1.395       .  A
C2518      H2525   1.084       .  S
C2519      C2520   1.392       .  A
C2519      H2526   1.083       .  S
C2520      C2521   1.403       .  A
C2520      H2527   1.083       .  S
C2521      C2522   1.404       .  A
C2522      H2528   1.084       .  S
C2529      C2530   1.403       .  A
C2529      C2534   1.402       .  A
C2530      C2531   1.403       .  A
C2530      H2539   1.083       .  S
C2531      C2532   1.406       .  A
C2531      H2540   1.084       .  S
C2532      C2538   1.410       .  A
C2532      C2533   1.414       .  A
C2533      C2535   1.399       .  A
C2533      C2534   1.401       .  A
C2534      H2541   1.085       .  S
C2535      C2536   1.394       .  A
C2535      H2542   1.084       .  S
C2536      C2537   1.406       .  A
C2536      H2543   1.083       .  S
C2537      C2538   1.409       .  A
C2538      H2544   1.084       .  S
C2545      C2546   1.406       .  A
C2545      C2550   1.406       .  A
C2546      C2547   1.398       .  A
C2546      H2555   1.083       .  S
C2547      C2548   1.402       .  A
C2547      H2556   1.084       .  S
C2548      C2554   1.402       .  A
C2548      C2549   1.413       .  A
C2549      C2551   1.401       .  A
C2549      C2550   1.400       .  A
C2550      H2557   1.084       .  S
C2551      C2552   1.395       .  A
C2551      H2558   1.084       .  S
C2552      C2553   1.404       .  A
C2552      H2559   1.083       .  S
C2553      C2554   1.406       .  A
C2554      H2560   1.084       .  S
C2561      C2562   1.404       .  A
C2561      C2566   1.404       .  A
C2562      C2563   1.393       .  A
C2562      H2571   1.083       .  S
C2563      C2564   1.400       .  A
C2563      H2572   1.084       .  S
C2564      C2570   1.396       .  A
C2564      C2565   1.414       .  A
C2565      C2567   1.404       .  A
C2565      C2566   1.401       .  A
C2566      H2573   1.084       .  S
C2567      C2568   1.398       .  A
C2567      H2574   1.084       .  S
C2568      C2569   1.402       .  A
C2568      H2575   1.083       .  S
C2569      C2570   1.401       .  A
C2570      H2576   1.085       .  S
C2577      C2578   1.406       .  A
C2577      C2582   1.405       .  A
C2578      C2579   1.398       .  A
C2578      H2587   1.083       .  S
C2579      C2580   1.402       .  A
C2579      H2588   1.083       .  S
C2580      C2586   1.406       .  A
C2580      C2581   1.414       .  A
C2581      C2583   1.401       .  A
C2581      C2582   1.406       .  A
C2582      H2589   1.084       .  S
C2583      C2584   1.397       .  A
C2583      H2590   1.083       .  S
C2584      C2585   1.407       .  A
C2584      H2591   1.083       .  S
C2585      C2586   1.407       .  A
C2586      H2592   1.084       .  S
C2593      C2594   1.404       .  A
C2593      C2598   1.402       .  A
C2594      C2595   1.405       .  A
C2594      H2603   1.082       .  S
C2595      C2596   1.407       .  A
C2595      H2604   1.085       .  S
C2596      C2602   1.409       .  A
C2596      C2597   1.414       .  A
C2597      C2599   1.399       .  A
C2597      C2598   1.397       .  A
C2598      H2605   1.087       .  S
C2599      C2600   1.391       .  A
C2599      H2606   1.086       .  S
C2600      C2601   1.403       .  A
C2600      H2607   1.083       .  S
C2601      C2602   1.408       .  A
C2602      H2608   1.086       .  S
C2609      C2610   1.406       .  A
C2609      C2614   1.409       .  A
C2610      C2611   1.394       .  A
C2610      H2619   1.083       .  S
C2611      C2612   1.400       .  A
C2611      H2620   1.084       .  S
C2612      C2618   1.401       .  A
C2612      C2613   1.413       .  A
C2613      C2615   1.404       .  A
C2613      C2614   1.406       .  A
C2614      H2621   1.084       .  S
C2615      C2616   1.401       .  A
C2615      H2622   1.084       .  S
C2616      C2617   1.406       .  A
C2616      H2623   1.083       .  S
C2617      C2618   1.406       .  A
C2618      H2624   1.084       .  S
C2625      C2626   1.406       .  A
C2625      C2630   1.406       .  A
C2626      C2627   1.393       .  A
C2626      H2635   1.083       .  S
C2627      C2628   1.399       .  A
C2627      H2636   1.085       .  S
C2628      C2634   1.400       .  A
C2628      C2629   1.415       .  A
C2629      C2631   1.404       .  A
C2629      C2630   1.406       .  A
C2630      H2637   1.086       .  S
C2631      C2632   1.400       .  A
C2631      H2638   1.085       .  S
C2632      C2633   1.404       .  A
C2632      H2639   1.082       .  S
C2633      C2634   1.402       .  A
C2634      H2640   1.086       .  S
C2641      C2642   1.404       .  A
C2641      C2646   1.407       .  A
C2642      C2643   1.399       .  A
C2642      H2651   1.083       .  S
C2643      C2644   1.403       .  A
C2643      H2652   1.084       .  S
C2644      C2650   1.405       .  A
C2644      C2645   1.413       .  A
C2645      C2647   1.403       .  A
C2645      C2646   1.406       .  A
C2646      H2653   1.084       .  S
C2647      C2648   1.399       .  A
C2647      H2654   1.084       .  S
C2648      C2649   1.406       .  A
C2648      H2655   1.083       .  S
C2649      C2650   1.409       .  A
C2650      H2656   1.084       .  S
C2657      C2658   1.404       .  A
C2657      C2662   1.405       .  A
C2658      C2659   1.403       .  A
C2658      H2667   1.083       .  S
C2659      C2660   1.406       .  A
C2659      H2668   1.083       .  S
C2660      C2666   1.407       .  A
C2660      C2661   1.414       .  A
C2661      C2663   1.401       .  A
C2661      C2662   1.399       .  A
C2662      H2669   1.085       .  S
C2663      C2664   1.394       .  A
C2663      H2670   1.084       .  S
C2664      C2665   1.402       .  A
C2664      H2671   1.084       .  S
C2665      C2666   1.407       .  A
C2666      H2672   1.084       .  S
C2673      C2674   1.403       .  A
C2673      C2678   1.402       .  A
C2674      C2675   1.400       .  A
C2674      H2683   1.083       .  S
C2675      C2676   1.404       .  A
C2675      H2684   1.083       .  S
C2676      C2682   1.405       .  A
C2676      C2677   1.414       .  A
C2677      C2679   1.401       .  A
C2677      C2678   1.399       .  A
C2678      H2685   1.085       .  S
C2679      C2680   1.394       .  A
C2679      H2686   1.083       .  S
C2680      C2681   1.403       .  A
C2680      H2687   1.084       .  S
C2681      C2682   1.405       .  A
C2682      H2688   1.084       .  S
C2689      C2690   1.405       .  A
C2689      C2694   1.406       .  A
C2690      C2691   1.395       .  A
C2690      H2699   1.083       .  S
C2691      C2692   1.401       .  A
C2691      H2700   1.084       .  S
C2692      C2698   1.399       .  A
C2692      C2693   1.413       .  A
C2693      C2695   1.402       .  A
C2693      C2694   1.401       .  A
C2694      H2701   1.084       .  S
C2695      C2696   1.397       .  A
C2695      H2702   1.084       .  S
C2696      C2697   1.405       .  A
C2696      H2703   1.083       .  S
C2697      C2698   1.405       .  A
C2698      H2704   1.084       .  S
C2705      C2706   1.405       .  A
C2705      C2710   1.408   1_565  A
C2706      C2707   1.396       .  A
C2706      H2715   1.083       .  S
C2707      C2708   1.401   1_565  A
C2707      H2716   1.084       .  S
C2708      C2714   1.403       .  A
C2708      C2709   1.413       .  A
C2709      C2711   1.403       .  A
C2709      C2710   1.407       .  A
C2710      H2717   1.084       .  S
C2711      C2712   1.400       .  A
C2711      H2718   1.084   1_655  S
C2712      C2713   1.407       .  A
C2712      H2719   1.083   1_655  S
C2713      C2714   1.407       .  A
C2714      H2720   1.084       .  S
C2721      C2722   1.404       .  A
C2721      C2726   1.406       .  A
C2722      C2723   1.396       .  A
C2722      H2731   1.083       .  S
C2723      C2724   1.401       .  A
C2723      H2732   1.084       .  S
C2724      C2730   1.402       .  A
C2724      C2725   1.414       .  A
C2725      C2727   1.403       .  A
C2725      C2726   1.405       .  A
C2726      H2733   1.084       .  S
C2727      C2728   1.399       .  A
C2727      H2734   1.084       .  S
C2728      C2729   1.407       .  A
C2728      H2735   1.083       .  S
C2729      C2730   1.406       .  A
C2730      H2736   1.084       .  S
C2737      C2738   1.403       .  A
C2737      C2742   1.405       .  A
C2738      C2739   1.393       .  A
C2738      H2747   1.084       .  S
C2739      C2740   1.400       .  A
C2739      H2748   1.083       .  S
C2740      C2746   1.397       .  A
C2740      C2741   1.414       .  A
C2741      C2743   1.405       .  A
C2741      C2742   1.404       .  A
C2742      H2749   1.084       .  S
C2743      C2744   1.401       .  A
C2743      H2750   1.083       .  S
C2744      C2745   1.403       .  A
C2744      H2751   1.083       .  S
C2745      C2746   1.403       .  A
C2746      H2752   1.085       .  S
C2753      C2754   1.405       .  A
C2753      C2758   1.407       .  A
C2754      C2755   1.398       .  A
C2754      H2763   1.083       .  S
C2755      C2756   1.403       .  A
C2755      H2764   1.084       .  S
C2756      C2762   1.404       .  A
C2756      C2757   1.413       .  A
C2757      C2759   1.402       .  A
C2757      C2758   1.404       .  A
C2758      H2765   1.084       .  S
C2759      C2760   1.398       .  A
C2759      H2766   1.084       .  S
C2760      C2761   1.406       .  A
C2760      H2767   1.083       .  S
C2761      C2762   1.408       .  A
C2762      H2768   1.084       .  S
C2769      C2770   1.404       .  A
C2769      C2774   1.405       .  A
C2770      C2771   1.394       .  A
C2770      H2779   1.084       .  S
C2771      C2772   1.400       .  A
C2771      H2780   1.083       .  S
C2772      C2778   1.400       .  A
C2772      C2773   1.415       .  A
C2773      C2775   1.404       .  A
C2773      C2774   1.406       .  A
C2774      H2781   1.084       .  S
C2775      C2776   1.400       .  A
C2775      H2782   1.083       .  S
C2776      C2777   1.404       .  A
C2776      H2783   1.083       .  S
C2777      C2778   1.403       .  A
C2778      H2784   1.084       .  S
C2785      C2786   1.407       .  A
C2785      C2790   1.408       .  A
C2786      C2787   1.396       .  A
C2786      H2795   1.083       .  S
C2787      C2788   1.400       .  A
C2787      H2796   1.084       .  S
C2788      C2794   1.405       .  A
C2788      C2789   1.414       .  A
C2789      C2791   1.402       .  A
C2789      C2790   1.409       .  A
C2790      H2797   1.084       .  S
C2791      C2792   1.400       .  A
C2791      H2798   1.084       .  S
C2792      C2793   1.408       .  A
C2792      H2799   1.083       .  S
C2793      C2794   1.406       .  A
C2794      H2800   1.084       .  S
C2801      C2802   1.406   1_545  A
C2801      C2806   1.408       .  A
C2802      C2803   1.395       .  A
C2802      H2811   1.083       .  S
C2803      C2804   1.400   1_565  A
C2803      H2812   1.083       .  S
C2804      C2810   1.403       .  A
C2804      C2805   1.414       .  A
C2805      C2807   1.403       .  A
C2805      C2806   1.407       .  A
C2806      H2813   1.084       .  S
C2807      C2808   1.400       .  A
C2807      H2814   1.083       .  S
C2808      C2809   1.407       .  A
C2808      H2815   1.083       .  S
C2809      C2810   1.405       .  A
C2810      H2816   1.084       .  S
C2817      C2818   1.403       .  A
C2817      C2822   1.408       .  A
C2818      C2819   1.395       .  A
C2818      H2827   1.083       .  S
C2819      C2820   1.402       .  A
C2819      H2828   1.083       .  S
C2820      C2826   1.400       .  A
C2820      C2821   1.413       .  A
C2821      C2823   1.405       .  A
C2821      C2822   1.406       .  A
C2822      H2829   1.084       .  S
C2823      C2824   1.401       .  A
C2823      H2830   1.083       .  S
C2824      C2825   1.403       .  A
C2824      H2831   1.083       .  S
C2825      C2826   1.405       .  A
C2826      H2832   1.084       .  S
C2833      C2834   1.407       .  A
C2833      C2838   1.405       .  A
C2834      C2835   1.394       .  A
C2834      H2843   1.083       .  S
C2835      C2836   1.399       .  A
C2835      H2844   1.084       .  S
C2836      C2842   1.403       .  A
C2836      C2837   1.415       .  A
C2837      C2839   1.401       .  A
C2837      C2838   1.406       .  A
C2838      H2845   1.084       .  S
C2839      C2840   1.398       .  A
C2839      H2846   1.083       .  S
C2840      C2841   1.408       .  A
C2840      H2847   1.083       .  S
C2841      C2842   1.404       .  A
C2842      H2848   1.084       .  S
C2849      C2850   1.405       .  A
C2849      C2854   1.407       .  A
C2850      C2851   1.402       .  A
C2850      H2859   1.083       .  S
C2851      C2852   1.405       .  A
C2851      H2860   1.083       .  S
C2852      C2858   1.407       .  A
C2852      C2853   1.414       .  A
C2853      C2855   1.402   1_565  A
C2853      C2854   1.400       .  A
C2854      H2861   1.084   1_565  S
C2855      C2856   1.394       .  A
C2855      H2862   1.083       .  S
C2856      C2857   1.402   1_545  A
C2856      H2863   1.084       .  S
C2857      C2858   1.406       .  A
C2858      H2864   1.084       .  S
C2865      C2866   1.405       .  A
C2865      C2870   1.407       .  A
C2866      C2867   1.399       .  A
C2866      H2875   1.083       .  S
C2867      C2868   1.403       .  A
C2867      H2876   1.083       .  S
C2868      C2874   1.405       .  A
C2868      C2869   1.413       .  A
C2869      C2871   1.402       .  A
C2869      C2870   1.403       .  A
C2870      H2877   1.084       .  S
C2871      C2872   1.397       .  A
C2871      H2878   1.084       .  S
C2872      C2873   1.406       .  A
C2872      H2879   1.083       .  S
C2873      C2874   1.408       .  A
C2874      H2880   1.084       .  S
C2881      C2882   1.403       .  A
C2881      C2886   1.408       .  A
C2882      C2883   1.393       .  A
C2882      H2891   1.084       .  S
C2883      C2884   1.400       .  A
C2883      H2892   1.084       .  S
C2884      C2890   1.400       .  A
C2884      C2885   1.414       .  A
C2885      C2887   1.406       .  A
C2885      C2886   1.410       .  A
C2886      H2893   1.084       .  S
C2887      C2888   1.404       .  A
C2887      H2894   1.083       .  S
C2888      C2889   1.404       .  A
C2888      H2895   1.083       .  S
C2889      C2890   1.404       .  A
C2890      H2896   1.085       .  S
C2897      C2898   1.403       .  A
C2897      C2902   1.404       .  A
C2898      C2899   1.402       .  A
C2898      H2907   1.083       .  S
C2899      C2900   1.406       .  A
C2899      H2908   1.084       .  S
C2900      C2906   1.404       .  A
C2900      C2901   1.413       .  A
C2901      C2903   1.401       .  A
C2901      C2902   1.393       .  A
C2902      H2909   1.085       .  S
C2903      C2904   1.391       .  A
C2903      H2910   1.084       .  S
C2904      C2905   1.401       .  A
C2904      H2911   1.084       .  S
C2905      C2906   1.406       .  A
C2906      H2912   1.084       .  S
C2913      C2914   1.404       .  A
C2913      C2918   1.403       .  A
C2914      C2915   1.396       .  A
C2914      H2923   1.083       .  S
C2915      C2916   1.402       .  A
C2915      H2924   1.084       .  S
C2916      C2922   1.400       .  A
C2916      C2917   1.413       .  A
C2917      C2919   1.400       .  A
C2917      C2918   1.398       .  A
C2918      H2925   1.085       .  S
C2919      C2920   1.394       .  A
C2919      H2926   1.084       .  S
C2920      C2921   1.406       .  A
C2920      H2927   1.083       .  S
C2921      C2922   1.406       .  A
C2922      H2928   1.084       .  S
C2929      C2930   1.406       .  A
C2929      C2934   1.405   1_556  A
C2930      C2931   1.399       .  A
C2930      H2939   1.083       .  S
C2931      C2932   1.403   1_556  A
C2931      H2940   1.084       .  S
C2932      C2938   1.405       .  A
C2932      C2933   1.414       .  A
C2933      C2935   1.400       .  A
C2933      C2934   1.402       .  A
C2934      H2941   1.084       .  S
C2935      C2936   1.396       .  A
C2935      H2942   1.084       .  S
C2936      C2937   1.406       .  A
C2936      H2943   1.083       .  S
C2937      C2938   1.408       .  A
C2938      H2944   1.084       .  S
C2945      C2946   1.407       .  A
C2945      C2950   1.406       .  A
C2946      C2947   1.397       .  A
C2946      H2955   1.083       .  S
C2947      C2948   1.401       .  A
C2947      H2956   1.084       .  S
C2948      C2954   1.404       .  A
C2948      C2949   1.414       .  A
C2949      C2951   1.401       .  A
C2949      C2950   1.403       .  A
C2950      H2957   1.084       .  S
C2951      C2952   1.396       .  A
C2951      H2958   1.084       .  S
C2952      C2953   1.406       .  A
C2952      H2959   1.083       .  S
C2953      C2954   1.405       .  A
C2954      H2960   1.084       .  S
C2961      C2962   1.404       .  A
C2961      C2966   1.404       .  A
C2962      C2963   1.398       .  A
C2962      H2971   1.083       .  S
C2963      C2964   1.403       .  A
C2963      H2972   1.084       .  S
C2964      C2970   1.401       .  A
C2964      C2965   1.413       .  A
C2965      C2967   1.402       .  A
C2965      C2966   1.396       .  A
C2966      H2973   1.084       .  S
C2967      C2968   1.393       .  A
C2967      H2974   1.084       .  S
C2968      C2969   1.401       .  A
C2968      H2975   1.084   1_556  S
C2969      C2970   1.403       .  A
C2970      H2976   1.085       .  S
C2977      C2978   1.404       .  A
C2977      C2982   1.405       .  A
C2978      C2979   1.399       .  A
C2978      H2987   1.083       .  S
C2979      C2980   1.404       .  A
C2979      H2988   1.084       .  S
C2980      C2986   1.403       .  A
C2980      C2981   1.413       .  A
C2981      C2983   1.400       .  A
C2981      C2982   1.400       .  A
C2982      H2989   1.084       .  S
C2983      C2984   1.394       .  A
C2983      H2990   1.084       .  S
C2984      C2985   1.406       .  A
C2984      H2991   1.083       .  S
C2985      C2986   1.408       .  A
C2986      H2992   1.084       .  S
C2993      C2994   1.402       .  A
C2993      C2998   1.399       .  A
C2994      C2995   1.399       .  A
C2994      H3003   1.083       .  S
C2995      C2996   1.404       .  A
C2995      H3004   1.084       .  S
C2996      C3002   1.405       .  A
C2996      C2997   1.416       .  A
C2997      C2999   1.400       .  A
C2997      C2998   1.400       .  A
C2998      H3005   1.085       .  S
C2999      C3000   1.394       .  A
C2999      H3006   1.084       .  S
C3000      C3001   1.404       .  A
C3000      H3007   1.083       .  S
C3001      C3002   1.405       .  A
C3002      H3008   1.085       .  S
C3009      C3010   1.405       .  A
C3009      C3014   1.406       .  A
C3010      C3011   1.401       .  A
C3010      H3019   1.083       .  S
C3011      C3012   1.405       .  A
C3011      H3020   1.084       .  S
C3012      C3018   1.404       .  A
C3012      C3013   1.412       .  A
C3013      C3015   1.401       .  A
C3013      C3014   1.399       .  A
C3014      H3021   1.084       .  S
C3015      C3016   1.395       .  A
C3015      H3022   1.084       .  S
C3016      C3017   1.404       .  A
C3016      H3023   1.083       .  S
C3017      C3018   1.409       .  A
C3018      H3024   1.084       .  S
C3025      C3026   1.402       .  A
C3025      C3030   1.406       .  A
C3026      C3027   1.401       .  A
C3026      H3035   1.083       .  S
C3027      C3028   1.405       .  A
C3027      H3036   1.083       .  S
C3028      C3034   1.405       .  A
C3028      C3029   1.413       .  A
C3029      C3031   1.402       .  A
C3029      C3030   1.400       .  A
C3030      H3037   1.085       .  S
C3031      C3032   1.396       .  A
C3031      H3038   1.083       .  S
C3032      C3033   1.403       .  A
C3032      H3039   1.084   1_565  S
C3033      C3034   1.406       .  A
C3034      H3040   1.084       .  S
C3041      C3042   1.406       .  A
C3041      C3046   1.409       .  A
C3042      C3043   1.399       .  A
C3042      H3051   1.083       .  S
C3043      C3044   1.402       .  A
C3043      H3052   1.084       .  S
C3044      C3050   1.408       .  A
C3044      C3045   1.414       .  A
C3045      C3047   1.403       .  A
C3045      C3046   1.409       .  A
C3046      H3053   1.084       .  S
C3047      C3048   1.400       .  A
C3047      H3054   1.084       .  S
C3048      C3049   1.408       .  A
C3048      H3055   1.083       .  S
C3049      C3050   1.408       .  A
C3050      H3056   1.084       .  S
C3057      C3058   1.406       .  A
C3057      C3062   1.406       .  A
C3058      C3059   1.396   1_554  A
C3058      H3067   1.083   1_554  S
C3059      C3060   1.401   1_556  A
C3059      H3068   1.084       .  S
C3060      C3066   1.402   1_554  A
C3060      C3061   1.414       .  A
C3061      C3063   1.402       .  A
C3061      C3062   1.402       .  A
C3062      H3069   1.084       .  S
C3063      C3064   1.396       .  A
C3063      H3070   1.084       .  S
C3064      C3065   1.405       .  A
C3064      H3071   1.083       .  S
C3065      C3066   1.405   1_554  A
C3066      H3072   1.084       .  S
C3073      C3074   1.402       .  A
C3073      C3078   1.404       .  A
C3074      C3075   1.390       .  A
C3074      H3083   1.084       .  S
C3075      C3076   1.398       .  A
C3075      H3084   1.083       .  S
C3076      C3082   1.397       .  A
C3076      C3077   1.415       .  A
C3077      C3079   1.404       .  A
C3077      C3078   1.406       .  A
C3078      H3085   1.084       .  S
C3079      C3080   1.400       .  A
C3079      H3086   1.083       .  S
C3080      C3081   1.406       .  A
C3080      H3087   1.083       .  S
C3081      C3082   1.401       .  A
C3082      H3088   1.084       .  S
C3089      C3090   1.406       .  A
C3089      C3094   1.405       .  A
C3090      C3091   1.397       .  A
C3090      H3099   1.083       .  S
C3091      C3092   1.401       .  A
C3091      H3100   1.084       .  S
C3092      C3098   1.404       .  A
C3092      C3093   1.414       .  A
C3093      C3095   1.401       .  A
C3093      C3094   1.404       .  A
C3094      H3101   1.084       .  S
C3095      C3096   1.397       .  A
C3095      H3102   1.084       .  S
C3096      C3097   1.406       .  A
C3096      H3103   1.083       .  S
C3097      C3098   1.406       .  A
C3098      H3104   1.084       .  S
C3105      C3106   1.402       .  A
C3105      C3110   1.404       .  A
C3106      C3107   1.393       .  A
C3106      H3115   1.083       .  S
C3107      C3108   1.401       .  A
C3107      H3116   1.084       .  S
C3108      C3114   1.399       .  A
C3108      C3109   1.415       .  A
C3109      C3111   1.403       .  A
C3109      C3110   1.404       .  A
C3110      H3117   1.085       .  S
C3111      C3112   1.399       .  A
C3111      H3118   1.084       .  S
C3112      C3113   1.404       .  A
C3112      H3119   1.083       .  S
C3113      C3114   1.402       .  A
C3114      H3120   1.085       .  S
C3121      C3122   1.404       .  A
C3121      C3126   1.406       .  A
C3122      C3123   1.401       .  A
C3122      H3131   1.083       .  S
C3123      C3124   1.404       .  A
C3123      H3132   1.084       .  S
C3124      C3130   1.409       .  A
C3124      C3125   1.414       .  A
C3125      C3127   1.402       .  A
C3125      C3126   1.407       .  A
C3126      H3133   1.085       .  S
C3127      C3128   1.398       .  A
C3127      H3134   1.084       .  S
C3128      C3129   1.406       .  A
C3128      H3135   1.083       .  S
C3129      C3130   1.408       .  A
C3130      H3136   1.084       .  S
C3137      C3138   1.405       .  A
C3137      C3142   1.408       .  A
C3138      C3139   1.400       .  A
C3138      H3147   1.083       .  S
C3139      C3140   1.404       .  A
C3139      H3148   1.083       .  S
C3140      C3146   1.404       .  A
C3140      C3141   1.412       .  A
C3141      C3143   1.402       .  A
C3141      C3142   1.401       .  A
C3142      H3149   1.084       .  S
C3143      C3144   1.396       .  A
C3143      H3150   1.083       .  S
C3144      C3145   1.405       .  A
C3144      H3151   1.083       .  S
C3145      C3146   1.409       .  A
C3146      H3152   1.084       .  S
C3153      C3154   1.405       .  A
C3153      C3158   1.406       .  A
C3154      C3155   1.394       .  A
C3154      H3163   1.083       .  S
C3155      C3156   1.401       .  A
C3155      H3164   1.084       .  S
C3156      C3162   1.400       .  A
C3156      C3157   1.414       .  A
C3157      C3159   1.403       .  A
C3157      C3158   1.404       .  A
C3158      H3165   1.084       .  S
C3159      C3160   1.399       .  A
C3159      H3166   1.084       .  S
C3160      C3161   1.406       .  A
C3160      H3167   1.083       .  S
C3161      C3162   1.406       .  A
C3162      H3168   1.084       .  S
C3169      C3170   1.407       .  A
C3169      C3174   1.406       .  A
C3170      C3171   1.396       .  A
C3170      H3179   1.083       .  S
C3171      C3172   1.400       .  A
C3171      H3180   1.084       .  S
C3172      C3178   1.403       .  A
C3172      C3173   1.414       .  A
C3173      C3175   1.402       .  A
C3173      C3174   1.404       .  A
C3174      H3181   1.084       .  S
C3175      C3176   1.397       .  A
C3175      H3182   1.083       .  S
C3176      C3177   1.405       .  A
C3176      H3183   1.083       .  S
C3177      C3178   1.404       .  A
C3178      H3184   1.084       .  S
C3185      C3186   1.408       .  A
C3185      C3190   1.406   1_565  A
C3186      C3187   1.397       .  A
C3186      H3195   1.083       .  S
C3187      C3188   1.401   1_565  A
C3187      H3196   1.084       .  S
C3188      C3194   1.406       .  A
C3188      C3189   1.414       .  A
C3189      C3191   1.401       .  A
C3189      C3190   1.405       .  A
C3190      H3197   1.084       .  S
C3191      C3192   1.396       .  A
C3191      H3198   1.084       .  S
C3192      C3193   1.407       .  A
C3192      H3199   1.083       .  S
C3193      C3194   1.405       .  A
C3194      H3200   1.084       .  S
C3201      C3202   1.401       .  A
C3201      C3206   1.400       .  A
C3202      C3203   1.403       .  A
C3202      H3211   1.083       .  S
C3203      C3204   1.407       .  A
C3203      H3212   1.084       .  S
C3204      C3210   1.406       .  A
C3204      C3205   1.414       .  A
C3205      C3207   1.399       .  A
C3205      C3206   1.397       .  A
C3206      H3213   1.086       .  S
C3207      C3208   1.392       .  A
C3207      H3214   1.084       .  S
C3208      C3209   1.406       .  A
C3208      H3215   1.083       .  S
C3209      C3210   1.409       .  A
C3210      H3216   1.084       .  S
C3217      C3218   1.406       .  A
C3217      C3222   1.408       .  A
C3218      C3219   1.398       .  A
C3218      H3227   1.083       .  S
C3219      C3220   1.402       .  A
C3219      H3228   1.083       .  S
C3220      C3226   1.406       .  A
C3220      C3221   1.414       .  A
C3221      C3223   1.402       .  A
C3221      C3222   1.407       .  A
C3222      H3229   1.084       .  S
C3223      C3224   1.399       .  A
C3223      H3230   1.084       .  S
C3224      C3225   1.407       .  A
C3224      H3231   1.083       .  S
C3225      C3226   1.407       .  A
C3226      H3232   1.084       .  S
C3233      C3234   1.406       .  A
C3233      C3238   1.407       .  A
C3234      C3235   1.400       .  A
C3234      H3243   1.083       .  S
C3235      C3236   1.403       .  A
C3235      H3244   1.083       .  S
C3236      C3242   1.406       .  A
C3236      C3237   1.413       .  A
C3237      C3239   1.401       .  A
C3237      C3238   1.403       .  A
C3238      H3245   1.084       .  S
C3239      C3240   1.396       .  A
C3239      H3246   1.084       .  S
C3240      C3241   1.405       .  A
C3240      H3247   1.083       .  S
C3241      C3242   1.408       .  A
C3242      H3248   1.084       .  S
C3249      C3250   1.406       .  A
C3249      C3254   1.406       .  A
C3250      C3251   1.396       .  A
C3250      H3259   1.083       .  S
C3251      C3252   1.401       .  A
C3251      H3260   1.084       .  S
C3252      C3258   1.401       .  A
C3252      C3253   1.414       .  A
C3253      C3255   1.401       .  A
C3253      C3254   1.401       .  A
C3254      H3261   1.084       .  S
C3255      C3256   1.396       .  A
C3255      H3262   1.084       .  S
C3256      C3257   1.405       .  A
C3256      H3263   1.083       .  S
C3257      C3258   1.405       .  A
C3258      H3264   1.084       .  S
C3265      C3266   1.404       .  A
C3265      C3270   1.405       .  A
C3266      C3267   1.397       .  A
C3266      H3275   1.083       .  S
C3267      C3268   1.403       .  A
C3267      H3276   1.083       .  S
C3268      C3274   1.402       .  A
C3268      C3269   1.414       .  A
C3269      C3271   1.402       .  A
C3269      C3270   1.402       .  A
C3270      H3277   1.084       .  S
C3271      C3272   1.397       .  A
C3271      H3278   1.083       .  S
C3272      C3273   1.403       .  A
C3272      H3279   1.083       .  S
C3273      C3274   1.405       .  A
C3274      H3280   1.084       .  S
C3281      C3282   1.407       .  A
C3281      C3286   1.409       .  A
C3282      C3283   1.394       .  A
C3282      H3291   1.083       .  S
C3283      C3284   1.400       .  A
C3283      H3292   1.084       .  S
C3284      C3290   1.400       .  A
C3284      C3285   1.414       .  A
C3285      C3287   1.407       .  A
C3285      C3286   1.407       .  A
C3286      H3293   1.083       .  S
C3287      C3288   1.402       .  A
C3287      H3294   1.083       .  S
C3288      C3289   1.401       .  A
C3288      H3295   1.083       .  S
C3289      C3290   1.401       .  A
C3290      H3296   1.085       .  S
C3297      C3298   1.407       .  A
C3297      C3302   1.407       .  A
C3298      C3299   1.396       .  A
C3298      H3307   1.083       .  S
C3299      C3300   1.401       .  A
C3299      H3308   1.084       .  S
C3300      C3306   1.404       .  A
C3300      C3301   1.414       .  A
C3301      C3303   1.402       .  A
C3301      C3302   1.406       .  A
C3302      H3309   1.084       .  S
C3303      C3304   1.399       .  A
C3303      H3310   1.084       .  S
C3304      C3305   1.406       .  A
C3304      H3311   1.083       .  S
C3305      C3306   1.407       .  A
C3306      H3312   1.084       .  S
C3313      C3314   1.405       .  A
C3313      C3318   1.405       .  A
C3314      C3315   1.396       .  A
C3314      H3323   1.083       .  S
C3315      C3316   1.401       .  A
C3315      H3324   1.084       .  S
C3316      C3322   1.402       .  A
C3316      C3317   1.414       .  A
C3317      C3319   1.401       .  A
C3317      C3318   1.401       .  A
C3318      H3325   1.084   1_545  S
C3319      C3320   1.396       .  A
C3319      H3326   1.084   1_545  S
C3320      C3321   1.406       .  A
C3320      H3327   1.083       .  S
C3321      C3322   1.405       .  A
C3322      H3328   1.084       .  S
C3329      C3330   1.404       .  A
C3329      C3334   1.402       .  A
C3330      C3331   1.401       .  A
C3330      H3339   1.083       .  S
C3331      C3332   1.405       .  A
C3331      H3340   1.083       .  S
C3332      C3338   1.408       .  A
C3332      C3333   1.415       .  A
C3333      C3335   1.399       .  A
C3333      C3334   1.401       .  A
C3334      H3341   1.085       .  S
C3335      C3336   1.394       .  A
C3335      H3342   1.084   1_565  S
C3336      C3337   1.406       .  A
C3336      H3343   1.083   1_565  S
C3337      C3338   1.408       .  A
C3338      H3344   1.084       .  S
C3345      C3346   1.405       .  A
C3345      C3350   1.409       .  A
C3346      C3347   1.394       .  A
C3346      H3355   1.083       .  S
C3347      C3348   1.400       .  A
C3347      H3356   1.084       .  S
C3348      C3354   1.399       .  A
C3348      C3349   1.413       .  A
C3349      C3351   1.404       .  A
C3349      C3350   1.405       .  A
C3350      H3357   1.084       .  S
C3351      C3352   1.400       .  A
C3351      H3358   1.084       .  S
C3352      C3353   1.406       .  A
C3352      H3359   1.083       .  S
C3353      C3354   1.405       .  A
C3354      H3360   1.084       .  S
C3361      C3362   1.405       .  A
C3361      C3366   1.404       .  A
C3362      C3363   1.400       .  A
C3362      H3371   1.083       .  S
C3363      C3364   1.404       .  A
C3363      H3372   1.083       .  S
C3364      C3370   1.405       .  A
C3364      C3365   1.415       .  A
C3365      C3367   1.400       .  A
C3365      C3366   1.397       .  A
C3366      H3373   1.084       .  S
C3367      C3368   1.392       .  A
C3367      H3374   1.084       .  S
C3368      C3369   1.401       .  A
C3368      H3375   1.084       .  S
C3369      C3370   1.404       .  A
C3370      H3376   1.084       .  S
C3377      C3378   1.403       .  A
C3377      C3382   1.401       .  A
C3378      C3379   1.401       .  A
C3378      H3387   1.083       .  S
C3379      C3380   1.406       .  A
C3379      H3388   1.083       .  S
C3380      C3386   1.405       .  A
C3380      C3381   1.414       .  A
C3381      C3383   1.399       .  A
C3381      C3382   1.396       .  A
C3382      H3389   1.085   1_565  S
C3383      C3384   1.391       .  A
C3383      H3390   1.084       .  S
C3384      C3385   1.404       .  A
C3384      H3391   1.083       .  S
C3385      C3386   1.406       .  A
C3386      H3392   1.084       .  S
C3393      C3394   1.406       .  A
C3393      C3398   1.405       .  A
C3394      C3395   1.397       .  A
C3394      H3403   1.083       .  S
C3395      C3396   1.402       .  A
C3395      H3404   1.084       .  S
C3396      C3402   1.402       .  A
C3396      C3397   1.413       .  A
C3397      C3399   1.401       .  A
C3397      C3398   1.400       .  A
C3398      H3405   1.084       .  S
C3399      C3400   1.395       .  A
C3399      H3406   1.084       .  S
C3400      C3401   1.404       .  A
C3400      H3407   1.083       .  S
C3401      C3402   1.405       .  A
C3402      H3408   1.085       .  S
C3409      C3410   1.405       .  A
C3409      C3414   1.407       .  A
C3410      C3411   1.395       .  A
C3410      H3419   1.083       .  S
C3411      C3412   1.401       .  A
C3411      H3420   1.084       .  S
C3412      C3418   1.401       .  A
C3412      C3413   1.413       .  A
C3413      C3415   1.403       .  A
C3413      C3414   1.404       .  A
C3414      H3421   1.084       .  S
C3415      C3416   1.398       .  A
C3415      H3422   1.084       .  S
C3416      C3417   1.406       .  A
C3416      H3423   1.083       .  S
C3417      C3418   1.406       .  A
C3418      H3424   1.084       .  S
C3425      C3426   1.404       .  A
C3425      C3430   1.405       .  A
C3426      C3427   1.401       .  A
C3426      H3435   1.083       .  S
C3427      C3428   1.404       .  A
C3427      H3436   1.083       .  S
C3428      C3434   1.408       .  A
C3428      C3429   1.415       .  A
C3429      C3431   1.401       .  A
C3429      C3430   1.403       .  A
C3430      H3437   1.085       .  S
C3431      C3432   1.395       .  A
C3431      H3438   1.084       .  S
C3432      C3433   1.404       .  A
C3432      H3439   1.084       .  S
C3433      C3434   1.406       .  A
C3434      H3440   1.084       .  S
C3441      C3442   1.405       .  A
C3441      C3446   1.403       .  A
C3442      C3443   1.401       .  A
C3442      H3451   1.083       .  S
C3443      C3444   1.405       .  A
C3443      H3452   1.083       .  S
C3444      C3450   1.406       .  A
C3444      C3445   1.413       .  A
C3445      C3447   1.398       .  A
C3445      C3446   1.397       .  A
C3446      H3453   1.084       .  S
C3447      C3448   1.391       .  A
C3447      H3454   1.084       .  S
C3448      C3449   1.406       .  A
C3448      H3455   1.083       .  S
C3449      C3450   1.409       .  A
C3450      H3456   1.084       .  S
C3457      C3458   1.406       .  A
C3457      C3462   1.409       .  A
C3458      C3459   1.397       .  A
C3458      H3467   1.083       .  S
C3459      C3460   1.401       .  A
C3459      H3468   1.084       .  S
C3460      C3466   1.404       .  A
C3460      C3461   1.414       .  A
C3461      C3463   1.404       .  A
C3461      C3462   1.408       .  A
C3462      H3469   1.084       .  S
C3463      C3464   1.400       .  A
C3463      H3470   1.084       .  S
C3464      C3465   1.406       .  A
C3464      H3471   1.083       .  S
C3465      C3466   1.406       .  A
C3466      H3472   1.084       .  S
C3473      C3474   1.404       .  A
C3473      C3478   1.405       .  A
C3474      C3475   1.400       .  A
C3474      H3483   1.083       .  S
C3475      C3476   1.404       .  A
C3475      H3484   1.083       .  S
C3476      C3482   1.405       .  A
C3476      C3477   1.414       .  A
C3477      C3479   1.402       .  A
C3477      C3478   1.401       .  A
C3478      H3485   1.084       .  S
C3479      C3480   1.396       .  A
C3479      H3486   1.084       .  S
C3480      C3481   1.403       .  A
C3480      H3487   1.083       .  S
C3481      C3482   1.406       .  A
C3482      H3488   1.084       .  S
C3489      C3490   1.404       .  A
C3489      C3494   1.402       .  A
C3490      C3491   1.399       .  A
C3490      H3499   1.083       .  S
C3491      C3492   1.404       .  A
C3491      H3500   1.084       .  S
C3492      C3498   1.404       .  A
C3492      C3493   1.414       .  A
C3493      C3495   1.400       .  A
C3493      C3494   1.400       .  A
C3494      H3501   1.085       .  S
C3495      C3496   1.394       .  A
C3495      H3502   1.084       .  S
C3496      C3497   1.406       .  A
C3496      H3503   1.083       .  S
C3497      C3498   1.408       .  A
C3498      H3504   1.084       .  S
C3505      C3506   1.405       .  A
C3505      C3510   1.406       .  A
C3506      C3507   1.399       .  A
C3506      H3515   1.083       .  S
C3507      C3508   1.403       .  A
C3507      H3516   1.084       .  S
C3508      C3514   1.405       .  A
C3508      C3509   1.414       .  A
C3509      C3511   1.403       .  A
C3509      C3510   1.404       .  A
C3510      H3517   1.084       .  S
C3511      C3512   1.398       .  A
C3511      H3518   1.084       .  S
C3512      C3513   1.402       .  A
C3512      H3519   1.083       .  S
C3513      C3514   1.404       .  A
C3514      H3520   1.085       .  S
C3521      C3522   1.406       .  A
C3521      C3526   1.408       .  A
C3522      C3523   1.395       .  A
C3522      H3531   1.083       .  S
C3523      C3524   1.401       .  A
C3523      H3532   1.084       .  S
C3524      C3530   1.401       .  A
C3524      C3525   1.413       .  A
C3525      C3527   1.403       .  A
C3525      C3526   1.405       .  A
C3526      H3533   1.084       .  S
C3527      C3528   1.399       .  A
C3527      H3534   1.083       .  S
C3528      C3529   1.405       .  A
C3528      H3535   1.083       .  S
C3529      C3530   1.406       .  A
C3530      H3536   1.084       .  S
C3537      C3538   1.405       .  A
C3537      C3542   1.402       .  A
C3538      C3539   1.402       .  A
C3538      H3547   1.083       .  S
C3539      C3540   1.405       .  A
C3539      H3548   1.084       .  S
C3540      C3546   1.408       .  A
C3540      C3541   1.415       .  A
C3541      C3543   1.398       .  A
C3541      C3542   1.398       .  A
C3542      H3549   1.085       .  S
C3543      C3544   1.391       .  A
C3543      H3550   1.084       .  S
C3544      C3545   1.404       .  A
C3544      H3551   1.083       .  S
C3545      C3546   1.407       .  A
C3546      H3552   1.084       .  S
C3553      C3554   1.406       .  A
C3553      C3558   1.406       .  A
C3554      C3555   1.396       .  A
C3554      H3563   1.083       .  S
C3555      C3556   1.401       .  A
C3555      H3564   1.083       .  S
C3556      C3562   1.404       .  A
C3556      C3557   1.414       .  A
C3557      C3559   1.401       .  A
C3557      C3558   1.404       .  A
C3558      H3565   1.084       .  S
C3559      C3560   1.397       .  A
C3559      H3566   1.083       .  S
C3560      C3561   1.407       .  A
C3560      H3567   1.083       .  S
C3561      C3562   1.406       .  A
C3562      H3568   1.084       .  S
C3569      C3570   1.406       .  A
C3569      C3574   1.405       .  A
C3570      C3571   1.396       .  A
C3570      H3579   1.083       .  S
C3571      C3572   1.401       .  A
C3571      H3580   1.084       .  S
C3572      C3578   1.401       .  A
C3572      C3573   1.414       .  A
C3573      C3575   1.401       .  A
C3573      C3574   1.401       .  A
C3574      H3581   1.084       .  S
C3575      C3576   1.395       .  A
C3575      H3582   1.084       .  S
C3576      C3577   1.405       .  A
C3576      H3583   1.083       .  S
C3577      C3578   1.404       .  A
C3578      H3584   1.084       .  S
C3585      C3586   1.405       .  A
C3585      C3590   1.402       .  A
C3586      C3587   1.400       .  A
C3586      H3595   1.083       .  S
C3587      C3588   1.404       .  A
C3587      H3596   1.083       .  S
C3588      C3594   1.406       .  A
C3588      C3589   1.415       .  A
C3589      C3591   1.399       .  A
C3589      C3590   1.399       .  A
C3590      H3597   1.084       .  S
C3591      C3592   1.392       .  A
C3591      H3598   1.083       .  S
C3592      C3593   1.404       .  A
C3592      H3599   1.084       .  S
C3593      C3594   1.405       .  A
C3594      H3600   1.084       .  S
C3601      C3602   1.403       .  A
C3601      C3606   1.403       .  A
C3602      C3603   1.392       .  A
C3602      H3611   1.084       .  S
C3603      C3604   1.400       .  A
C3603      H3612   1.084       .  S
C3604      C3610   1.397       .  A
C3604      C3605   1.415       .  A
C3605      C3607   1.404       .  A
C3605      C3606   1.404       .  A
C3606      H3613   1.084       .  S
C3607      C3608   1.400       .  A
C3607      H3614   1.083       .  S
C3608      C3609   1.404       .  A
C3608      H3615   1.083       .  S
C3609      C3610   1.403       .  A
C3610      H3616   1.085       .  S
C3617      C3618   1.407       .  A
C3617      C3622   1.404       .  A
C3618      C3619   1.399       .  A
C3618      H3627   1.083       .  S
C3619      C3620   1.402       .  A
C3619      H3628   1.084       .  S
C3620      C3626   1.407       .  A
C3620      C3621   1.415       .  A
C3621      C3623   1.399       .  A
C3621      C3622   1.403       .  A
C3622      H3629   1.084       .  S
C3623      C3624   1.394       .  A
C3623      H3630   1.084       .  S
C3624      C3625   1.408       .  A
C3624      H3631   1.083       .  S
C3625      C3626   1.407       .  A
C3626      H3632   1.084       .  S
C3633      C3634   1.406       .  A
C3633      C3638   1.404       .  A
C3634      C3635   1.403       .  A
C3634      H3643   1.083       .  S
C3635      C3636   1.405       .  A
C3635      H3644   1.084       .  S
C3636      C3642   1.408       .  A
C3636      C3637   1.413       .  A
C3637      C3639   1.399       .  A
C3637      C3638   1.399       .  A
C3638      H3645   1.084       .  S
C3639      C3640   1.392       .  A
C3639      H3646   1.084       .  S
C3640      C3641   1.405       .  A
C3640      H3647   1.083       .  S
C3641      C3642   1.410       .  A
C3642      H3648   1.084       .  S
C3649      C3650   1.406       .  A
C3649      C3654   1.408       .  A
C3650      C3651   1.399       .  A
C3650      H3659   1.083       .  S
C3651      C3652   1.403       .  A
C3651      H3660   1.084       .  S
C3652      C3658   1.406       .  A
C3652      C3653   1.413       .  A
C3653      C3655   1.402       .  A
C3653      C3654   1.405       .  A
C3654      H3661   1.084       .  S
C3655      C3656   1.398       .  A
C3655      H3662   1.084       .  S
C3656      C3657   1.405       .  A
C3656      H3663   1.083       .  S
C3657      C3658   1.408       .  A
C3658      H3664   1.084       .  S
C3665      C3666   1.404       .  A
C3665      C3670   1.408       .  A
C3666      C3667   1.392       .  A
C3666      H3675   1.084       .  S
C3667      C3668   1.399       .  A
C3667      H3676   1.084       .  S
C3668      C3674   1.399       .  A
C3668      C3669   1.414       .  A
C3669      C3671   1.407       .  A
C3669      C3670   1.411       .  A
C3670      H3677   1.084       .  S
C3671      C3672   1.405       .  A
C3671      H3678   1.083       .  S
C3672      C3673   1.404       .  A
C3672      H3679   1.083       .  S
C3673      C3674   1.403       .  A
C3674      H3680   1.085       .  S
C3681      C3682   1.406       .  A
C3681      C3686   1.403       .  A
C3682      C3683   1.396       .  A
C3682      H3691   1.083       .  S
C3683      C3684   1.400       .  A
C3683      H3692   1.084       .  S
C3684      C3690   1.402       .  A
C3684      C3685   1.415       .  A
C3685      C3687   1.399       .  A
C3685      C3686   1.400       .  A
C3686      H3693   1.084       .  S
C3687      C3688   1.394       .  A
C3687      H3694   1.084       .  S
C3688      C3689   1.407       .  A
C3688      H3695   1.083       .  S
C3689      C3690   1.404       .  A
C3690      H3696   1.084       .  S
C3697      C3698   1.406       .  A
C3697      C3702   1.405       .  A
C3698      C3699   1.395       .  A
C3698      H3707   1.083       .  S
C3699      C3700   1.401       .  A
C3699      H3708   1.084       .  S
C3700      C3706   1.401       .  A
C3700      C3701   1.413       .  A
C3701      C3703   1.401       .  A
C3701      C3702   1.401       .  A
C3702      H3709   1.084       .  S
C3703      C3704   1.396       .  A
C3703      H3710   1.084       .  S
C3704      C3705   1.406       .  A
C3704      H3711   1.083       .  S
C3705      C3706   1.406       .  A
C3706      H3712   1.084       .  S
C3713      C3714   1.402       .  A
C3713      C3718   1.407       .  A
C3714      C3715   1.390       .  A
C3714      H3723   1.084       .  S
C3715      C3716   1.399       .  A
C3715      H3724   1.084       .  S
C3716      C3722   1.395       .  A
C3716      C3717   1.413       .  A
C3717      C3719   1.406       .  A
C3717      C3718   1.407       .  A
C3718      H3725   1.084       .  S
C3719      C3720   1.403       .  A
C3719      H3726   1.084       .  S
C3720      C3721   1.405       .  A
C3720      H3727   1.083       .  S
C3721      C3722   1.403       .  A
C3722      H3728   1.085       .  S
C3729      C3730   1.405       .  A
C3729      C3734   1.408       .  A
C3730      C3731   1.389       .  A
C3730      H3739   1.083       .  S
C3731      C3732   1.397       .  A
C3731      H3740   1.084       .  S
C3732      C3738   1.396       .  A
C3732      C3733   1.414       .  A
C3733      C3735   1.404       .  A
C3733      C3734   1.407       .  A
C3734      H3741   1.084       .  S
C3735      C3736   1.401       .  A
C3735      H3742   1.084       .  S
C3736      C3737   1.407       .  A
C3736      H3743   1.083       .  S
C3737      C3738   1.401       .  A
C3738      H3744   1.084       .  S
C3745      C3746   1.406       .  A
C3745      C3750   1.405       .  A
C3746      C3747   1.393       .  A
C3746      H3755   1.083       .  S
C3747      C3748   1.400       .  A
C3747      H3756   1.084       .  S
C3748      C3754   1.398       .  A
C3748      C3749   1.414       .  A
C3749      C3751   1.402       .  A
C3749      C3750   1.402       .  A
C3750      H3757   1.084       .  S
C3751      C3752   1.397       .  A
C3751      H3758   1.083       .  S
C3752      C3753   1.405       .  A
C3752      H3759   1.083       .  S
C3753      C3754   1.404       .  A
C3754      H3760   1.084       .  S
C3761      C3762   1.403       .  A
C3761      C3766   1.402       .  A
C3762      C3763   1.403       .  A
C3762      H3771   1.083       .  S
C3763      C3764   1.407       .  A
C3763      H3772   1.083       .  S
C3764      C3770   1.406       .  A
C3764      C3765   1.413       .  A
C3765      C3767   1.399       .  A
C3765      C3766   1.393       .  A
C3766      H3773   1.085       .  S
C3767      C3768   1.389       .  A
C3767      H3774   1.084       .  S
C3768      C3769   1.402       .  A
C3768      H3775   1.084       .  S
C3769      C3770   1.407       .  A
C3770      H3776   1.084       .  S
C3777      C3778   1.407       .  A
C3777      C3782   1.405       .  A
C3778      C3779   1.397       .  A
C3778      H3787   1.083       .  S
C3779      C3780   1.401       .  A
C3779      H3788   1.084       .  S
C3780      C3786   1.404       .  A
C3780      C3781   1.414       .  A
C3781      C3783   1.401       .  A
C3781      C3782   1.402       .  A
C3782      H3789   1.084       .  S
C3783      C3784   1.395       .  A
C3783      H3790   1.084       .  S
C3784      C3785   1.405       .  A
C3784      H3791   1.083       .  S
C3785      C3786   1.404       .  A
C3786      H3792   1.084       .  S
C3793      C3794   1.404       .  A
C3793      C3798   1.403       .  A
C3794      C3795   1.401       .  A
C3794      H3803   1.083       .  S
C3795      C3796   1.404       .  A
C3795      H3804   1.083       .  S
C3796      C3802   1.407       .  A
C3796      C3797   1.415       .  A
C3797      C3799   1.399       .  A
C3797      C3798   1.399       .  A
C3798      H3805   1.085       .  S
C3799      C3800   1.392       .  A
C3799      H3806   1.084       .  S
C3800      C3801   1.404       .  A
C3800      H3807   1.084       .  S
C3801      C3802   1.405       .  A
C3802      H3808   1.084       .  S
C3809      C3810   1.407       .  A
C3809      C3814   1.406       .  A
C3810      C3811   1.395       .  A
C3810      H3819   1.083       .  S
C3811      C3812   1.399       .  A
C3811      H3820   1.084       .  S
C3812      C3818   1.403       .  A
C3812      C3813   1.415       .  A
C3813      C3815   1.401       .  A
C3813      C3814   1.405       .  A
C3814      H3821   1.084       .  S
C3815      C3816   1.397       .  A
C3815      H3822   1.084       .  S
C3816      C3817   1.406       .  A
C3816      H3823   1.083       .  S
C3817      C3818   1.403       .  A
C3818      H3824   1.084       .  S
C3825      C3826   1.405       .  A
C3825      C3830   1.408       .  A
C3826      C3827   1.398       .  A
C3826      H3835   1.083       .  S
C3827      C3828   1.403       .  A
C3827      H3836   1.084       .  S
C3828      C3834   1.404       .  A
C3828      C3829   1.412       .  A
C3829      C3831   1.403       .  A
C3829      C3830   1.404       .  A
C3830      H3837   1.084       .  S
C3831      C3832   1.399       .  A
C3831      H3838   1.084       .  S
C3832      C3833   1.406       .  A
C3832      H3839   1.083       .  S
C3833      C3834   1.408       .  A
C3834      H3840   1.084       .  S
C3841      C3842   1.401       .  A
C3841      C3846   1.401       .  A
C3842      C3843   1.402       .  A
C3842      H3851   1.083       .  S
C3843      C3844   1.407       .  A
C3843      H3852   1.083       .  S
C3844      C3850   1.406       .  A
C3844      C3845   1.413       .  A
C3845      C3847   1.400       .  A
C3845      C3846   1.399       .  A
C3846      H3853   1.086       .  S
C3847      C3848   1.394       .  A
C3847      H3854   1.084       .  S
C3848      C3849   1.406       .  A
C3848      H3855   1.083       .  S
C3849      C3850   1.410       .  A
C3850      H3856   1.084       .  S
C3857      C3858   1.403       .  A
C3857      C3862   1.404       .  A
C3858      C3859   1.401       .  A
C3858      H3867   1.083       .  S
C3859      C3860   1.406       .  A
C3859      H3868   1.083       .  S
C3860      C3866   1.406       .  A
C3860      C3861   1.413       .  A
C3861      C3863   1.402       .  A
C3861      C3862   1.400       .  A
C3862      H3869   1.085       .  S
C3863      C3864   1.395       .  A
C3863      H3870   1.084       .  S
C3864      C3865   1.404       .  A
C3864      H3871   1.083       .  S
C3865      C3866   1.408       .  A
C3866      H3872   1.084       .  S
C3873      C3874   1.408       .  A
C3873      C3878   1.405       .  A
C3874      C3875   1.395       .  A
C3874      H3883   1.083       .  S
C3875      C3876   1.399       .  A
C3875      H3884   1.084       .  S
C3876      C3882   1.403       .  A
C3876      C3877   1.415       .  A
C3877      C3879   1.400       .  A
C3877      C3878   1.403       .  A
C3878      H3885   1.084       .  S
C3879      C3880   1.395       .  A
C3879      H3886   1.084       .  S
C3880      C3881   1.406       .  A
C3880      H3887   1.083       .  S
C3881      C3882   1.402       .  A
C3882      H3888   1.085       .  S
C3889      C3890   1.407   1_455  A
C3889      C3894   1.406       .  A
C3890      C3891   1.399       .  A
C3890      H3899   1.083       .  S
C3891      C3892   1.402       .  A
C3891      H3900   1.084       .  S
C3892      C3898   1.406       .  A
C3892      C3893   1.414   1_655  A
C3893      C3895   1.401       .  A
C3893      C3894   1.402       .  A
C3894      H3901   1.084       .  S
C3895      C3896   1.395       .  A
C3895      H3902   1.084       .  S
C3896      C3897   1.405   1_455  A
C3896      H3903   1.083       .  S
C3897      C3898   1.406       .  A
C3898      H3904   1.084       .  S
C3905      C3906   1.405       .  A
C3905      C3910   1.405       .  A
C3906      C3907   1.393       .  A
C3906      H3915   1.083       .  S
C3907      C3908   1.400       .  A
C3907      H3916   1.084       .  S
C3908      C3914   1.398       .  A
C3908      C3909   1.414       .  A
C3909      C3911   1.402       .  A
C3909      C3910   1.402       .  A
C3910      H3917   1.084       .  S
C3911      C3912   1.397       .  A
C3911      H3918   1.084       .  S
C3912      C3913   1.405       .  A
C3912      H3919   1.083       .  S
C3913      C3914   1.403       .  A
C3914      H3920   1.084       .  S
C3921      C3922   1.404       .  A
C3921      C3926   1.408       .  A
C3922      C3923   1.390       .  A
C3922      H3931   1.084       .  S
C3923      C3924   1.398       .  A
C3923      H3932   1.084       .  S
C3924      C3930   1.394       .  A
C3924      C3925   1.414       .  A
C3925      C3927   1.407       .  A
C3925      C3926   1.407       .  A
C3926      H3933   1.084       .  S
C3927      C3928   1.404       .  A
C3927      H3934   1.083       .  S
C3928      C3929   1.403       .  A
C3928      H3935   1.083       .  S
C3929      C3930   1.401       .  A
C3930      H3936   1.085       .  S
C3937      C3938   1.406       .  A
C3937      C3942   1.406       .  A
C3938      C3939   1.397       .  A
C3938      H3947   1.083       .  S
C3939      C3940   1.402       .  A
C3939      H3948   1.084       .  S
C3940      C3946   1.403       .  A
C3940      C3941   1.414       .  A
C3941      C3943   1.401       .  A
C3941      C3942   1.402       .  A
C3942      H3949   1.084       .  S
C3943      C3944   1.396       .  A
C3943      H3950   1.084       .  S
C3944      C3945   1.405       .  A
C3944      H3951   1.083       .  S
C3945      C3946   1.405       .  A
C3946      H3952   1.084       .  S
C3953      C3954   1.406       .  A
C3953      C3958   1.408       .  A
C3954      C3955   1.398       .  A
C3954      H3963   1.083       .  S
C3955      C3956   1.402       .  A
C3955      H3964   1.084       .  S
C3956      C3962   1.406       .  A
C3956      C3957   1.414       .  A
C3957      C3959   1.403       .  A
C3957      C3958   1.407       .  A
C3958      H3965   1.084       .  S
C3959      C3960   1.399       .  A
C3959      H3966   1.084       .  S
C3960      C3961   1.407       .  A
C3960      H3967   1.083       .  S
C3961      C3962   1.408       .  A
C3962      H3968   1.084       .  S
C3969      C3970   1.404       .  A
C3969      C3974   1.403       .  A
C3970      C3971   1.402       .  A
C3970      H3979   1.083       .  S
C3971      C3972   1.405       .  A
C3971      H3980   1.083       .  S
C3972      C3978   1.408       .  A
C3972      C3973   1.414       .  A
C3973      C3975   1.400       .  A
C3973      C3974   1.400       .  A
C3974      H3981   1.085       .  S
C3975      C3976   1.393       .  A
C3975      H3982   1.084       .  S
C3976      C3977   1.404       .  A
C3976      H3983   1.083       .  S
C3977      C3978   1.408       .  A
C3978      H3984   1.084       .  S
C3985      C3986   1.405       .  A
C3985      C3990   1.407       .  A
C3986      C3987   1.398       .  A
C3986      H3995   1.083       .  S
C3987      C3988   1.403       .  A
C3987      H3996   1.084       .  S
C3988      C3994   1.403       .  A
C3988      C3989   1.413       .  A
C3989      C3991   1.403       .  A
C3989      C3990   1.403       .  A
C3990      H3997   1.084       .  S
C3991      C3992   1.397       .  A
C3991      H3998   1.084       .  S
C3992      C3993   1.405       .  A
C3992      H3999   1.083       .  S
C3993      C3994   1.407       .  A
C3994      H4000   1.084       .  S
C4001      C4002   1.404       .  A
C4001      C4006   1.407       .  A
C4002      C4003   1.394       .  A
C4002      H4011   1.084       .  S
C4003      C4004   1.401       .  A
C4003      H4012   1.084       .  S
C4004      C4010   1.401       .  A
C4004      C4005   1.414       .  A
C4005      C4007   1.406       .  A
C4005      C4006   1.409       .  A
C4006      H4013   1.084       .  S
C4007      C4008   1.403       .  A
C4007      H4014   1.083       .  S
C4008      C4009   1.404       .  A
C4008      H4015   1.083       .  S
C4009      C4010   1.404       .  A
C4010      H4016   1.085       .  S
C4017      C4018   1.406       .  A
C4017      C4022   1.406       .  A
C4018      C4019   1.397       .  A
C4018      H4027   1.083       .  S
C4019      C4020   1.402       .  A
C4019      H4028   1.084       .  S
C4020      C4026   1.402       .  A
C4020      C4021   1.413       .  A
C4021      C4023   1.401       .  A
C4021      C4022   1.401       .  A
C4022      H4029   1.084       .  S
C4023      C4024   1.396       .  A
C4023      H4030   1.084       .  S
C4024      C4025   1.405       .  A
C4024      H4031   1.083       .  S
C4025      C4026   1.406       .  A
C4026      H4032   1.084       .  S
C4033      C4034   1.406       .  A
C4033      C4038   1.404       .  A
C4034      C4035   1.398       .  A
C4034      H4043   1.083       .  S
C4035      C4036   1.403       .  A
C4035      H4044   1.084       .  S
C4036      C4042   1.402       .  A
C4036      C4037   1.413   1_455  A
C4037      C4039   1.400       .  A
C4037      C4038   1.398   1_655  A
C4038      H4045   1.084   1_455  S
C4039      C4040   1.393       .  A
C4039      H4046   1.084       .  S
C4040      C4041   1.404       .  A
C4040      H4047   1.083       .  S
C4041      C4042   1.406   1_655  A
C4042      H4048   1.084       .  S
C4049      C4050   1.404       .  A
C4049      C4054   1.402       .  A
C4050      C4051   1.402       .  A
C4050      H4059   1.083       .  S
C4051      C4052   1.405       .  A
C4051      H4060   1.084       .  S
C4052      C4058   1.406       .  A
C4052      C4053   1.415       .  A
C4053      C4055   1.399       .  A
C4053      C4054   1.397       .  A
C4054      H4061   1.085       .  S
C4055      C4056   1.391       .  A
C4055      H4062   1.084       .  S
C4056      C4057   1.403       .  A
C4056      H4063   1.083       .  S
C4057      C4058   1.406       .  A
C4058      H4064   1.084       .  S
C4065      C4066   1.405       .  A
C4065      C4070   1.405       .  A
C4066      C4067   1.397       .  A
C4066      H4075   1.083       .  S
C4067      C4068   1.402       .  A
C4067      H4076   1.084       .  S
C4068      C4074   1.402       .  A
C4068      C4069   1.414       .  A
C4069      C4071   1.401       .  A
C4069      C4070   1.402       .  A
C4070      H4077   1.084       .  S
C4071      C4072   1.396       .  A
C4071      H4078   1.084       .  S
C4072      C4073   1.406       .  A
C4072      H4079   1.083       .  S
C4073      C4074   1.406       .  A
C4074      H4080   1.084       .  S
C4081      C4082   1.405       .  A
C4081      C4086   1.409       .  A
C4082      C4083   1.392       .  A
C4082      H4091   1.083       .  S
C4083      C4084   1.399       .  A
C4083      H4092   1.084       .  S
C4084      C4090   1.398       .  A
C4084      C4085   1.413       .  A
C4085      C4087   1.405       .  A
C4085      C4086   1.407       .  A
C4086      H4093   1.084       .  S
C4087      C4088   1.402       .  A
C4087      H4094   1.084       .  S
C4088      C4089   1.406       .  A
C4088      H4095   1.083       .  S
C4089      C4090   1.405       .  A
C4090      H4096   1.084       .  S
C4097      C4098   1.404       .  A
C4097      C4102   1.402       .  A
C4098      C4099   1.401       .  A
C4098      H4107   1.083       .  S
C4099      C4100   1.405       .  A
C4099      H4108   1.083       .  S
C4100      C4106   1.405       .  A
C4100      C4101   1.414       .  A
C4101      C4103   1.399       .  A
C4101      C4102   1.395       .  A
C4102      H4109   1.085       .  S
C4103      C4104   1.391       .  A
C4103      H4110   1.084       .  S
C4104      C4105   1.402       .  A
C4104      H4111   1.084       .  S
C4105      C4106   1.405       .  A
C4106      H4112   1.084       .  S
C4113      C4114   1.402       .  A
C4113      C4118   1.403       .  A
C4114      C4115   1.393       .  A
C4114      H4123   1.084       .  S
C4115      C4116   1.400       .  A
C4115      H4124   1.084       .  S
C4116      C4122   1.399       .  A
C4116      C4117   1.415       .  A
C4117      C4119   1.403       .  A
C4117      C4118   1.404       .  A
C4118      H4125   1.084       .  S
C4119      C4120   1.398       .  A
C4119      H4126   1.084       .  S
C4120      C4121   1.405       .  A
C4120      H4127   1.083       .  S
C4121      C4122   1.403       .  A
C4122      H4128   1.085       .  S
C4129      C4130   1.405       .  A
C4129      C4134   1.403       .  A
C4130      C4131   1.397       .  A
C4130      H4139   1.083       .  S
C4131      C4132   1.402       .  A
C4131      H4140   1.083       .  S
C4132      C4138   1.403       .  A
C4132      C4133   1.414       .  A
C4133      C4135   1.399       .  A
C4133      C4134   1.399       .  A
C4134      H4141   1.084       .  S
C4135      C4136   1.393       .  A
C4135      H4142   1.084       .  S
C4136      C4137   1.406       .  A
C4136      H4143   1.083       .  S
C4137      C4138   1.406       .  A
C4138      H4144   1.084       .  S
C4145      C4146   1.405       .  A
C4145      C4150   1.407   1_455  A
C4146      C4147   1.399       .  A
C4146      H4155   1.083   1_556  S
C4147      C4148   1.403       .  A
C4147      H4156   1.083   1_556  S
C4148      C4154   1.404       .  A
C4148      C4149   1.413       .  A
C4149      C4151   1.402   1_455  A
C4149      C4150   1.402   1_455  A
C4150      H4157   1.084       .  S
C4151      C4152   1.397   1_655  A
C4151      H4158   1.084       .  S
C4152      C4153   1.406       .  A
C4152      H4159   1.083   1_455  S
C4153      C4154   1.408       .  A
C4154      H4160   1.084       .  S
C4161      C4162   1.407       .  A
C4161      C4166   1.403       .  A
C4162      C4163   1.399       .  A
C4162      H4171   1.083       .  S
C4163      C4164   1.402       .  A
C4163      H4172   1.084       .  S
C4164      C4170   1.406       .  A
C4164      C4165   1.414       .  A
C4165      C4167   1.399       .  A
C4165      C4166   1.402       .  A
C4166      H4173   1.084       .  S
C4167      C4168   1.394       .  A
C4167      H4174   1.084       .  S
C4168      C4169   1.407       .  A
C4168      H4175   1.083       .  S
C4169      C4170   1.407       .  A
C4170      H4176   1.084       .  S
C4177      C4178   1.406       .  A
C4177      C4182   1.405   1_655  A
C4178      C4179   1.396       .  A
C4178      H4187   1.083       .  S
C4179      C4180   1.401   1_655  A
C4179      H4188   1.084       .  S
C4180      C4186   1.402   1_455  A
C4180      C4181   1.414       .  A
C4181      C4183   1.401       .  A
C4181      C4182   1.402       .  A
C4182      H4189   1.084       .  S
C4183      C4184   1.397       .  A
C4183      H4190   1.084       .  S
C4184      C4185   1.406   1_455  A
C4184      H4191   1.083       .  S
C4185      C4186   1.406       .  A
C4186      H4192   1.084       .  S
C4193      C4194   1.404       .  A
C4193      C4198   1.407       .  A
C4194      C4195   1.391       .  A
C4194      H4203   1.083       .  S
C4195      C4196   1.399       .  A
C4195      H4204   1.084       .  S
C4196      C4202   1.395       .  A
C4196      C4197   1.414       .  A
C4197      C4199   1.406       .  A
C4197      C4198   1.404       .  A
C4198      H4205   1.084       .  S
C4199      C4200   1.401       .  A
C4199      H4206   1.084       .  S
C4200      C4201   1.402       .  A
C4200      H4207   1.083       .  S
C4201      C4202   1.400       .  A
C4202      H4208   1.086       .  S
C4209      C4210   1.404       .  A
C4209      C4214   1.406       .  A
C4210      C4211   1.394       .  A
C4210      H4219   1.083       .  S
C4211      C4212   1.401       .  A
C4211      H4220   1.084       .  S
C4212      C4218   1.399       .  A
C4212      C4213   1.413       .  A
C4213      C4215   1.403       .  A
C4213      C4214   1.402       .  A
C4214      H4221   1.084       .  S
C4215      C4216   1.398       .  A
C4215      H4222   1.084       .  S
C4216      C4217   1.405       .  A
C4216      H4223   1.083       .  S
C4217      C4218   1.405       .  A
C4218      H4224   1.084       .  S
C4225      C4226   1.406       .  A
C4225      C4230   1.408   1_554  A
C4226      C4227   1.397       .  A
C4226      H4235   1.083       .  S
C4227      C4228   1.402       .  A
C4227      H4236   1.084       .  S
C4228      C4234   1.404       .  A
C4228      C4229   1.413       .  A
C4229      C4231   1.403   1_554  A
C4229      C4230   1.404   1_554  A
C4230      H4237   1.084       .  S
C4231      C4232   1.398   1_556  A
C4231      H4238   1.084       .  S
C4232      C4233   1.405       .  A
C4232      H4239   1.083   1_554  S
C4233      C4234   1.406       .  A
C4234      H4240   1.084       .  S
C4241      C4242   1.404       .  A
C4241      C4246   1.408       .  A
C4242      C4243   1.394       .  A
C4242      H4251   1.083       .  S
C4243      C4244   1.401       .  A
C4243      H4252   1.084       .  S
C4244      C4250   1.400       .  A
C4244      C4245   1.414       .  A
C4245      C4247   1.406       .  A
C4245      C4246   1.407       .  A
C4246      H4253   1.084       .  S
C4247      C4248   1.403       .  A
C4247      H4254   1.083       .  S
C4248      C4249   1.402       .  A
C4248      H4255   1.083       .  S
C4249      C4250   1.404       .  A
C4250      H4256   1.085       .  S
C4257      C4258   1.405       .  A
C4257      C4262   1.406       .  A
C4258      C4259   1.398       .  A
C4258      H4267   1.083       .  S
C4259      C4260   1.403       .  A
C4259      H4268   1.084       .  S
C4260      C4266   1.403       .  A
C4260      C4261   1.413       .  A
C4261      C4263   1.401       .  A
C4261      C4262   1.402       .  A
C4262      H4269   1.084       .  S
C4263      C4264   1.396       .  A
C4263      H4270   1.084       .  S
C4264      C4265   1.405       .  A
C4264      H4271   1.083       .  S
C4265      C4266   1.408       .  A
C4266      H4272   1.084       .  S
C4273      C4274   1.405   1_556  A
C4273      C4278   1.406       .  A
C4274      C4275   1.397       .  A
C4274      H4283   1.083       .  S
C4275      C4276   1.402       .  A
C4275      H4284   1.084       .  S
C4276      C4282   1.402       .  A
C4276      C4277   1.413       .  A
C4277      C4279   1.402   1_554  A
C4277      C4278   1.402   1_554  A
C4278      H4285   1.084       .  S
C4279      C4280   1.396   1_556  A
C4279      H4286   1.084       .  S
C4280      C4281   1.405       .  A
C4280      H4287   1.083   1_554  S
C4281      C4282   1.407       .  A
C4282      H4288   1.084       .  S
C4289      C4290   1.403       .  A
C4289      C4294   1.406       .  A
C4290      C4291   1.401       .  A
C4290      H4299   1.083       .  S
C4291      C4292   1.405       .  A
C4291      H4300   1.083       .  S
C4292      C4298   1.406       .  A
C4292      C4293   1.413       .  A
C4293      C4295   1.402       .  A
C4293      C4294   1.402       .  A
C4294      H4301   1.085       .  S
C4295      C4296   1.397       .  A
C4295      H4302   1.084       .  S
C4296      C4297   1.405       .  A
C4296      H4303   1.083       .  S
C4297      C4298   1.408       .  A
C4298      H4304   1.084       .  S
C4305      C4306   1.408       .  A
C4305      C4310   1.405       .  A
C4306      C4307   1.396       .  A
C4306      H4315   1.083       .  S
C4307      C4308   1.400       .  A
C4307      H4316   1.084       .  S
C4308      C4314   1.405       .  A
C4308      C4309   1.415       .  A
C4309      C4311   1.400       .  A
C4309      C4310   1.404       .  A
C4310      H4317   1.084       .  S
C4311      C4312   1.396       .  A
C4311      H4318   1.084       .  S
C4312      C4313   1.406       .  A
C4312      H4319   1.083       .  S
C4313      C4314   1.404       .  A
C4314      H4320   1.084       .  S
C4321      C4322   1.406       .  A
C4321      C4326   1.405       .  A
C4322      C4323   1.394       .  A
C4322      H4331   1.083       .  S
C4323      C4324   1.400       .  A
C4323      H4332   1.084       .  S
C4324      C4330   1.400   1_455  A
C4324      C4325   1.414   1_455  A
C4325      C4327   1.401       .  A
C4325      C4326   1.402   1_655  A
C4326      H4333   1.084   1_455  S
C4327      C4328   1.396       .  A
C4327      H4334   1.084       .  S
C4328      C4329   1.406       .  A
C4328      H4335   1.083       .  S
C4329      C4330   1.403       .  A
C4330      H4336   1.084   1_655  S
C4337      C4338   1.403       .  A
C4337      C4342   1.406       .  A
C4338      C4339   1.393       .  A
C4338      H4347   1.083       .  S
C4339      C4340   1.401       .  A
C4339      H4348   1.084       .  S
C4340      C4346   1.397       .  A
C4340      C4341   1.414       .  A
C4341      C4343   1.405       .  A
C4341      C4342   1.404       .  A
C4342      H4349   1.084       .  S
C4343      C4344   1.400       .  A
C4343      H4350   1.084       .  S
C4344      C4345   1.404       .  A
C4344      H4351   1.083       .  S
C4345      C4346   1.403       .  A
C4346      H4352   1.085       .  S
C4353      C4354   1.407       .  A
C4353      C4358   1.404       .  A
C4354      C4355   1.394       .  A
C4354      H4363   1.083       .  S
C4355      C4356   1.399       .  A
C4355      H4364   1.084       .  S
C4356      C4362   1.401       .  A
C4356      C4357   1.415       .  A
C4357      C4359   1.400       .  A
C4357      C4358   1.400       .  A
C4358      H4365   1.084       .  S
C4359      C4360   1.394       .  A
C4359      H4366   1.084       .  S
C4360      C4361   1.406       .  A
C4360      H4367   1.083       .  S
C4361      C4362   1.402       .  A
C4362      H4368   1.085       .  S
C4369      C4370   1.405       .  A
C4369      C4374   1.404       .  A
C4370      C4371   1.399       .  A
C4370      H4379   1.083       .  S
C4371      C4372   1.403       .  A
C4371      H4380   1.084       .  S
C4372      C4378   1.404       .  A
C4372      C4373   1.413       .  A
C4373      C4375   1.399       .  A
C4373      C4374   1.398       .  A
C4374      H4381   1.085       .  S
C4375      C4376   1.393       .  A
C4375      H4382   1.084       .  S
C4376      C4377   1.406       .  A
C4376      H4383   1.083       .  S
C4377      C4378   1.407       .  A
C4378      H4384   1.084       .  S
C4385      C4386   1.401       .  A
C4385      C4390   1.405       .  A
C4386      C4387   1.388       .  A
C4386      H4395   1.084       .  S
C4387      C4388   1.398       .  A
C4387      H4396   1.084       .  S
C4388      C4394   1.392       .  A
C4388      C4389   1.414       .  A
C4389      C4391   1.406       .  A
C4389      C4390   1.406       .  A
C4390      H4397   1.084       .  S
C4391      C4392   1.403       .  A
C4391      H4398   1.083       .  S
C4392      C4393   1.404       .  A
C4392      H4399   1.083       .  S
C4393      C4394   1.402       .  A
C4394      H4400   1.085       .  S
C4401      C4402   1.403       .  A
C4401      C4406   1.410       .  A
C4402      C4403   1.391       .  A
C4402      H4411   1.083       .  S
C4403      C4404   1.399       .  A
C4403      H4412   1.084       .  S
C4404      C4410   1.396       .  A
C4404      C4405   1.413       .  A
C4405      C4407   1.408       .  A
C4405      C4406   1.408       .  A
C4406      H4413   1.084       .  S
C4407      C4408   1.405       .  A
C4407      H4414   1.083       .  S
C4408      C4409   1.403       .  A
C4408      H4415   1.083       .  S
C4409      C4410   1.402       .  A
C4410      H4416   1.085       .  S
