geometry optimzed in LAMMPS
_audit_creation_date              2020-12-01 
_audit_creation_method            'lammps2cif' 
_symmetry_space_group_name_H-M    'P1' 
_symmetry_Int_Tables_number       1 
_symmetry_cell_setting            triclinic 
loop_ 
_symmetry_equiv_pos_as_xyz 
  x,y,z 
_cell_length_a                    29.01759488 
_cell_length_b                    29.0105156679546 
_cell_length_c                    40.16881938843346 
_cell_angle_alpha                 89.9244295876985 
_cell_angle_beta                  89.9388512852176 
_cell_angle_gamma                 89.7786563771797 
loop_ 
_atom_site_label 
_atom_site_type_symbol 
_atom_site_fract_x 
_atom_site_fract_y 
_atom_site_fract_z 
_atom_site_charge 
O1          O  0.80202674  0.85604316  0.62315532    -0.73500
O2          O  0.86061726  0.97400969  0.62915440    -0.73600
O3          O  0.85361457  0.90740757  0.58124163    -0.73600
O4          O  0.80925376  0.92088088  0.67093673    -0.73700
O5          O  0.87220309  0.88484653  0.68949597    -0.73600
O6          O  0.91790596  0.87591302  0.60048764    -0.73600
O7          O  0.92328307  0.93936621  0.64953569    -0.73600
O8          O  0.86681032  0.82187413  0.64049446    -0.73600
Ni9        Ni  0.82914739  0.91601305  0.62536792     1.25400
Ni10       Ni  0.89736105  0.87948047  0.64562199     1.25400
C11         C  0.82485387  0.81979083  0.63098124     0.88600
C12         C  0.90145394  0.97597766  0.64111013     0.88600
C13         C  0.89285602  0.88825615  0.57582022     0.88600
C14         C  0.83283976  0.90348130  0.69489269     0.88800
O15         O  0.17043192  0.19686945  0.62532944    -0.73500
O16         O  0.04685246  0.14868183  0.63175197    -0.73600
O17         O  0.09977272  0.20669746  0.66887097    -0.73600
O18         O  0.11764800  0.14077809  0.58717074    -0.73700
O19         O  0.14657906  0.08063597  0.61489944    -0.73600
O20         O  0.12528818  0.14572250  0.69743079    -0.73600
O21         O  0.07522224  0.08791418  0.65884840    -0.73600
O22         O  0.19611957  0.13648907  0.65437638    -0.73600
Ni23       Ni  0.10754279  0.17536351  0.62722603     1.25400
Ni24       Ni  0.13648981  0.11048468  0.65738541     1.25400
C25         C  0.20348334  0.17451912  0.63935126     0.88600
C26         C  0.04094612  0.10993203  0.64665202     0.88600
C27         C  0.11041816  0.18748047  0.69648714     0.88600
C28         C  0.13669146  0.10090004  0.58734117     0.88800
O29         O  0.16680977  0.23670962  0.89792683    -0.73500
O30         O  0.04654570  0.29234813  0.89333413    -0.73600
O31         O  0.10129534  0.24574283  0.84997738    -0.73600
O32         O  0.11149509  0.28271127  0.94084066    -0.73700
O33         O  0.14457409  0.34823667  0.92503371    -0.73600
O34         O  0.13259242  0.31192986  0.83351830    -0.73600
O35         O  0.07927571  0.35831123  0.87735072    -0.73600
O36         O  0.19841246  0.30293518  0.88131226    -0.73600
Ni37       Ni  0.10540699  0.26197067  0.89602732     1.25400
Ni38       Ni  0.13978980  0.33271933  0.87869458     1.25400
C39         C  0.20227864  0.26105142  0.89079588     0.88600
C40         C  0.04351748  0.33478731  0.88474738     0.88600
C41         C  0.11480547  0.27265211  0.82664900     0.88600
C42         C  0.13033299  0.32117755  0.94812242     0.88800
O43         O  0.79569908  0.58459183  0.90204061    -0.73500
O44         O  0.85805277  0.46784905  0.89477654    -0.73600
O45         O  0.84799448  0.53166213  0.94314380    -0.73600
O46         O  0.80492864  0.52112829  0.85373566    -0.73700
O47         O  0.86793522  0.55638384  0.83544980    -0.73600
O48         O  0.91110583  0.56771724  0.92540111    -0.73600
O49         O  0.92073904  0.50438179  0.87644715    -0.73600
O50         O  0.85927076  0.62001647  0.88412742    -0.73600
Ni51       Ni  0.82447082  0.52489356  0.89905912     1.25400
Ni52       Ni  0.89205116  0.56327985  0.87968863     1.25400
C53         C  0.81741679  0.62136857  0.89401430     0.88600
C54         C  0.89997296  0.46730634  0.88469077     0.88600
C55         C  0.88610134  0.55207046  0.94919064     0.88600
C56         C  0.82853209  0.53809594  0.82976616     0.88800
O57         O  0.42463265  0.22712444  0.63005693    -0.73500
O58         O  0.53992896  0.29269958  0.63151742    -0.73600
O59         O  0.49373097  0.23641400  0.67518067    -0.73600
O60         O  0.47056177  0.28197372  0.58708754    -0.73700
O61         O  0.43551727  0.34345249  0.60873508    -0.73600
O62         O  0.45694043  0.29701066  0.69659432    -0.73600
O63         O  0.50317361  0.35302572  0.65371413    -0.73600
O64         O  0.38938459  0.28900427  0.65136309    -0.73600
Ni65       Ni  0.48372234  0.25726275  0.63032958     1.25400
Ni66       Ni  0.44523241  0.32274971  0.65345573     1.25400
C67         C  0.38808366  0.24794995  0.64005766     0.88600
C68         C  0.53955677  0.33466977  0.64152189     0.88600
C69         C  0.47760972  0.25823761  0.70040321     0.88600
C70         C  0.44861307  0.32002082  0.58336980     0.88800
O71         O  0.77006632  0.60216346  0.62884413    -0.73500
O72         O  0.71421638  0.48207937  0.63024737    -0.73600
O73         O  0.71924537  0.55242426  0.58597257    -0.73600
O74         O  0.76693330  0.53244178  0.67342448    -0.73700
O75         O  0.70346799  0.56380886  0.69542486    -0.73600
O76         O  0.65512234  0.58267860  0.60759256    -0.73600
O77         O  0.65118785  0.51381880  0.65262134    -0.73600
O78         O  0.70565381  0.63229734  0.64972839    -0.73600
Ni79       Ni  0.74495523  0.54095169  0.62897713     1.25400
Ni80       Ni  0.67663272  0.57398993  0.65227571     1.25400
C81         C  0.74636987  0.63727249  0.63824310     0.88600
C82         C  0.67245386  0.47903087  0.64047764     0.88600
C83         C  0.67988476  0.57179740  0.58231910     0.88600
C84         C  0.74378527  0.54618213  0.69866681     0.88800
O85         O  0.76799349  0.84031119  0.89606171    -0.73500
O86         O  0.71877950  0.96385873  0.89297655    -0.73600
O87         O  0.71860800  0.89388342  0.93767325    -0.73600
O88         O  0.77031698  0.91051712  0.85119695    -0.73700
O89         O  0.70691549  0.88081856  0.82843988    -0.73600
O90         O  0.65296760  0.86984610  0.91581068    -0.73600
O91         O  0.65567022  0.93610426  0.86868118    -0.73600
O92         O  0.70198786  0.81390885  0.87572260    -0.73600
Ni93       Ni  0.74626572  0.90321857  0.89519829     1.25400
Ni94       Ni  0.67713381  0.87433334  0.87123647     1.25400
C95         C  0.74229468  0.80644990  0.88730466     0.88600
C96         C  0.67849178  0.96988322  0.88050046     0.88600
C97         C  0.67753258  0.87904939  0.94150593     0.88600
C98         C  0.74769081  0.89748000  0.82564645     0.88800
O99         O  0.42103224  0.20661367  0.90717653    -0.73500
O100        O  0.54164463  0.15122058  0.90089824    -0.73600
O101        O  0.48773873  0.20242228  0.85994016    -0.73600
O102        O  0.47569450  0.15549801  0.94864212    -0.73700
O103        O  0.44466421  0.09141520  0.92905309    -0.73600
O104        O  0.45470178  0.13959764  0.83997244    -0.73600
O105        O  0.50895758  0.08804419  0.88007430    -0.73600
O106        O  0.39010464  0.14167436  0.88795858    -0.73600
Ni107      Ni  0.48260799  0.18125196  0.90496884     1.25400
Ni108      Ni  0.44857309  0.11288329  0.88366132     1.25400
C109        C  0.38587861  0.18334585  0.89765117     0.88600
C110        C  0.54474080  0.11044399  0.88885126     0.88600
C111        C  0.47289176  0.17929628  0.83505868     0.88600
C112        C  0.45857683  0.11551642  0.95386700     0.88800
O113        O  0.30983239  0.34095762  0.39971742    -0.73500
O114        O  0.36271099  0.46200509  0.39749712    -0.73600
O115        O  0.31350366  0.40972988  0.35432830    -0.73600
O116        O  0.35836637  0.39301082  0.44256742    -0.73700
O117        O  0.42371566  0.36428514  0.42299841    -0.73600
O118        O  0.37746548  0.37793578  0.33390554    -0.73600
O119        O  0.42709308  0.43173914  0.37611335    -0.73600
O120        O  0.37576899  0.31145398  0.38065825    -0.73600
Ni121      Ni  0.33379495  0.40263191  0.39916241     1.25400
Ni122      Ni  0.40342012  0.37056446  0.37762512     1.25400
C123        C  0.33445372  0.30620704  0.39094870     0.88600
C124        C  0.40402705  0.46632562  0.38678758     0.88600
C125        C  0.33694495  0.39471925  0.32958739     0.88600
C126        C  0.39794852  0.37494253  0.44782394     0.88800
O127        O  0.65805591  0.70834646  0.39568609    -0.73500
O128        O  0.54045744  0.64826976  0.39473580    -0.73600
O129        O  0.60836301  0.65857787  0.43986206    -0.73600
O130        O  0.59049123  0.69824932  0.35018726    -0.73700
O131        O  0.62377051  0.63391504  0.33142438    -0.73600
O132        O  0.64327177  0.59532577  0.42180613    -0.73600
O133        O  0.57478800  0.58396676  0.37667835    -0.73600
O134        O  0.69128153  0.64417828  0.37644950    -0.73600
Ni135      Ni  0.59801127  0.68061940  0.39570527     1.25400
Ni136      Ni  0.63425195  0.61192795  0.37593041     1.25400
C137        C  0.69385102  0.68614414  0.38590548     0.88600
C138        C  0.53874404  0.60585876  0.38614902     0.88600
C139        C  0.62962343  0.62081398  0.44599250     0.88600
C140        C  0.60586516  0.67369724  0.32609877     0.88800
O141        O  0.91478502  0.69830705  0.11909623    -0.73500
O142        O  0.03238745  0.63756695  0.12986252    -0.73600
O143        O  0.96433604  0.63634725  0.08311841    -0.73600
O144        O  0.98300014  0.70086251  0.16496454    -0.73700
O145        O  0.95072168  0.64263263  0.19277639    -0.73600
O146        O  0.92779916  0.58003821  0.11021060    -0.73600
O147        O  0.99667507  0.57987138  0.15558977    -0.73600
O148        O  0.88183749  0.64138021  0.14778750    -0.73600
Ni149      Ni  0.97502640  0.67025974  0.12320235     1.25400
Ni150      Ni  0.93824261  0.60890147  0.15255724     1.25400
C151        C  0.87906151  0.67985475  0.13243420     0.88600
C152        C  0.03364520  0.59839312  0.14477694     0.88600
C153        C  0.94149521  0.59870692  0.08302507     0.88600
C154        C  0.96942052  0.68263283  0.19223770     0.88800
O155        O  0.27505867  0.34275746  0.12445081    -0.73500
O156        O  0.21313920  0.45909569  0.13338727    -0.73600
O157        O  0.27069135  0.40840581  0.17220453    -0.73600
O158        O  0.21658137  0.39246997  0.08571353    -0.73700
O159        O  0.15698415  0.35634709  0.10915190    -0.73600
O160        O  0.21100699  0.37252949  0.19472869    -0.73600
O161        O  0.15333298  0.42304428  0.15627122    -0.73600
O162        O  0.21503550  0.30735617  0.14795106    -0.73600
Ni163      Ni  0.24597150  0.40207914  0.12803361     1.25400
Ni164      Ni  0.18185152  0.36379463  0.15277978     1.25400
C165        C  0.25553540  0.30624023  0.13538381     0.88600
C166        C  0.17305785  0.46024164  0.14666957     0.88600
C167        C  0.25028714  0.39182974  0.19789961     0.88600
C168        C  0.17844862  0.37050776  0.08329971     0.88800
O169        O  0.31339317  0.09181648  0.12441157    -0.73500
O170        O  0.35926190  0.96729612  0.13327552    -0.73600
O171        O  0.30212240  0.02302815  0.16980470    -0.73600
O172        O  0.36865919  0.03656791  0.08749797    -0.73700
O173        O  0.42908852  0.06454196  0.11495438    -0.73600
O174        O  0.36354247  0.04826356  0.19761149    -0.73600
O175        O  0.42022345  0.99533224  0.15988912    -0.73600
O176        O  0.37409242  0.11717674  0.15301010    -0.73600
Ni177      Ni  0.33366196  0.02854086  0.12772675     1.25400
Ni178      Ni  0.39887019  0.05700296  0.15735037     1.25400
C179        C  0.33644206  0.12481151  0.13758375     0.88600
C180        C  0.39788645  0.96109139  0.14825099     0.88600
C181        C  0.32169048  0.03406856  0.19721646     0.88600
C182        C  0.40889334  0.05465076  0.08747874     0.88800
O183        O  0.66202855  0.73526925  0.11979033    -0.73500
O184        O  0.53892120  0.78494066  0.12785649    -0.73600
O185        O  0.60654638  0.78621260  0.08005451    -0.73600
O186        O  0.59516512  0.73327169  0.16714185    -0.73700
O187        O  0.62456301  0.79664014  0.18893955    -0.73600
O188        O  0.63425421  0.85045028  0.10233702    -0.73600
O189        O  0.56919012  0.84814733  0.15025629    -0.73600
O190        O  0.69032484  0.79990004  0.14171178    -0.73600
Ni191      Ni  0.59949470  0.75763623  0.12280760     1.25400
Ni192      Ni  0.63045581  0.82603773  0.14650386     1.25400
C193        C  0.69616999  0.75952087  0.12984274     0.88600
C194        C  0.53409113  0.82469529  0.14143264     0.88600
C195        C  0.62349675  0.82666708  0.07665940     0.88600
C196        C  0.60848858  0.75589921  0.19272093     0.88800
O197        O  0.90948792  0.74353332  0.39287920    -0.73500
O198        O  0.03061954  0.79613927  0.38928702    -0.73600
O199        O  0.96107919  0.79359125  0.43529731    -0.73600
O200        O  0.97764778  0.74622336  0.34687852    -0.73700
O201        O  0.94881368  0.81117553  0.32612375    -0.73600
O202        O  0.93187970  0.85822729  0.41424689    -0.73600
O203        O  0.00022576  0.86064243  0.36843364    -0.73600
O204        O  0.87998603  0.80833246  0.37154925    -0.73600
Ni205      Ni  0.97090502  0.76757873  0.39187221     1.25400
Ni206      Ni  0.93922937  0.83687724  0.36940277     1.25400
C207        C  0.87503868  0.76732261  0.38268359     0.88600
C208        C  0.03528240  0.83706555  0.37775706     0.88600
C209        C  0.94272742  0.83347507  0.43951113     0.88600
C210        C  0.96571623  0.77081425  0.32173471     0.88800
O211        O  0.27942967  0.08635218  0.40277498    -0.73500
O212        O  0.21702943  0.97031364  0.39505923    -0.73600
O213        O  0.26786258  0.02356714  0.35360229    -0.73600
O214        O  0.22886640  0.03301394  0.44483102    -0.73700
O215        O  0.16535772  0.07009752  0.42886387    -0.73600
O216        O  0.20424186  0.06022741  0.33731916    -0.73600
O217        O  0.15367509  0.00800738  0.37897321    -0.73600
O218        O  0.21518133  0.12271776  0.38673478    -0.73600
Ni219      Ni  0.25056168  0.02697521  0.39973462     1.25400
Ni220      Ni  0.18233757  0.06650439  0.38247306     1.25400
C221        C  0.25737080  0.12342576  0.39565401     0.88600
C222        C  0.17516990  0.97036003  0.38492608     0.88600
C223        C  0.24255003  0.04013744  0.33029720     0.88600
C224        C  0.19101074  0.05366386  0.45209724     0.88800
C225        C  0.08117999  0.85920102  0.37529126    -0.04400
C226        C  0.11203977  0.85907403  0.40248269    -0.01600
C227        C  0.14601504  0.89362519  0.40488270     0.03400
C228        C  0.15011039  0.92682662  0.37937423    -0.04400
C229        C  0.12519698  0.92117338  0.34949489    -0.01600
C230        C  0.09082099  0.88733126  0.34743954     0.03400
C231        C  0.10843561  0.82443282  0.42827990     0.38100
C232        C  0.13411066  0.95106633  0.32118932     0.38100
C233        C  0.06500114  0.88165594  0.31677472     0.36500
C234        C  0.17414911  0.89701629  0.43458665     0.36500
N235        N  0.04458480  0.87687611  0.29229033    -0.38300
N236        N  0.19658806  0.89977191  0.45829735    -0.38300
N237        N  0.14131426  0.97489562  0.29865873    -0.37800
N238        N  0.10693221  0.79620946  0.44860353    -0.37800
C239        C  0.25830369  0.03612693  0.29474522    -0.04400
C240        C  0.24953206  0.07192257  0.27147310    -0.01600
C241        C  0.26611483  0.06851231  0.23843723     0.03400
C242        C  0.29544425  0.03185547  0.22910607    -0.04400
C243        C  0.30166180  0.99468561  0.25127218    -0.01600
C244        C  0.28265186  0.99639410  0.28373578     0.03400
C245        C  0.22599051  0.11376184  0.28174500     0.38100
C246        C  0.32524665  0.95346724  0.23992232     0.38100
C247        C  0.28719709  0.95654349  0.30536010     0.36500
C248        C  0.25104467  0.10157059  0.21361925     0.36500
N249        N  0.29064547  0.92464395  0.32252581    -0.38300
N250        N  0.23751376  0.12725141  0.19381236    -0.38300
N251        N  0.34302452  0.92002441  0.23078931    -0.37800
N252        N  0.20777994  0.14743371  0.28999139    -0.37800
C253        C  0.41962059  0.91463906  0.15171297    -0.04400
C254        C  0.44874758  0.90597825  0.17932441    -0.01600
C255        C  0.48214115  0.87091954  0.17765526     0.03400
C256        C  0.48814583  0.84565367  0.14794103    -0.04400
C257        C  0.45367610  0.84808960  0.12321288    -0.01600
C258        C  0.41868204  0.88214074  0.12545151     0.03400
C259        C  0.44640956  0.93467551  0.20890242     0.38100
C260        C  0.45536649  0.81747820  0.09480651     0.38100
C261        C  0.38324776  0.88465187  0.10014310     0.36500
C262        C  0.51188118  0.86223710  0.20609444     0.36500
N263        N  0.35451866  0.88599041  0.08019649    -0.38300
N264        N  0.53548256  0.85536904  0.22878481    -0.38300
N265        N  0.45606135  0.79278761  0.07221936    -0.37800
N266        N  0.44509568  0.95770048  0.23239968    -0.37800
C267        C  0.28059913  0.26200578  0.13512380    -0.04400
C268        C  0.29052874  0.23921530  0.10494132    -0.01600
C269        C  0.30873292  0.19402703  0.10550215     0.03400
C270        C  0.31905954  0.17269618  0.13625076    -0.04400
C271        C  0.31431240  0.19797678  0.16613073    -0.01600
C272        C  0.29354505  0.24176856  0.16566030     0.03400
C273        C  0.28222784  0.26228966  0.07346112     0.38100
C274        C  0.33053067  0.17905876  0.19754813     0.38100
C275        C  0.28619642  0.26616921  0.19675590     0.36500
C276        C  0.31910144  0.17050704  0.07452166     0.36500
N277        N  0.28066196  0.28484563  0.22188035    -0.38300
N278        N  0.32775424  0.15197952  0.04977759    -0.38300
N279        N  0.34369291  0.16425073  0.22258183    -0.37800
N280        N  0.27610728  0.28094627  0.04836192    -0.37800
C281        C  0.83343496  0.70304799  0.13135913    -0.04400
C282        C  0.80691900  0.70585506  0.16090771    -0.01600
C283        C  0.76227622  0.72472404  0.16015155     0.03400
C284        C  0.74316455  0.73998914  0.12983446    -0.04400
C285        C  0.76972470  0.73841114  0.10041706    -0.01600
C286        C  0.81485441  0.71988081  0.10112087     0.03400
C287        C  0.82562831  0.68995158  0.19248619     0.38100
C288        C  0.75093852  0.75674484  0.06965122     0.38100
C289        C  0.84112902  0.71617109  0.07050480     0.36500
C290        C  0.73614681  0.72855746  0.19086157     0.36500
N291        N  0.86196166  0.71291522  0.04602329    -0.38300
N292        N  0.71620351  0.73154552  0.21571992    -0.38300
N293        N  0.73611125  0.77164016  0.04514386    -0.37800
N294        N  0.84031241  0.67732056  0.21768954    -0.37800
C295        C  0.97060903  0.75192766  0.28710819    -0.04400
C296        C  0.94184338  0.76806051  0.26082152    -0.01600
C297        C  0.94344779  0.74684116  0.22925467     0.03400
C298        C  0.97317647  0.70919658  0.22354403    -0.04400
C299        C  0.00528151  0.69645886  0.24810508    -0.01600
C300        C  0.00373471  0.71709572  0.27990752     0.03400
C301        C  0.90891326  0.80518113  0.26604771     0.38100
C302        C  0.04233959  0.66489896  0.23974129     0.38100
C303        C  0.03728768  0.70290023  0.30469082     0.36500
C304        C  0.91465308  0.76419149  0.20244404     0.36500
N305        N  0.06406897  0.69131525  0.32435975    -0.38300
N306        N  0.89206236  0.77876059  0.18113439    -0.38300
N307        N  0.07311361  0.64116589  0.23309707    -0.37800
N308        N  0.88243762  0.83461640  0.27002900    -0.37800
C309        C  0.14770848  0.50456721  0.15075188    -0.04400
C310        C  0.11824609  0.51008137  0.17837251    -0.01600
C311        C  0.08267237  0.54301029  0.17751073     0.03400
C312        C  0.07762765  0.57243250  0.14948994    -0.04400
C313        C  0.11284719  0.57284068  0.12502846    -0.01600
C314        C  0.14810053  0.53903540  0.12581866     0.03400
C315        C  0.12513598  0.48234313  0.20807945     0.38100
C316        C  0.11172955  0.60601658  0.09800632     0.38100
C317        C  0.18406998  0.53957991  0.10075720     0.36500
C318        C  0.05067329  0.54527151  0.20531014     0.36500
N319        N  0.21307907  0.54055734  0.08096984    -0.38300
N320        N  0.02521546  0.54656667  0.22749877    -0.38300
N321        N  0.11104467  0.63249394  0.07642876    -0.37800
N322        N  0.13089971  0.46083220  0.23199597    -0.37800
C323        C  0.73921851  0.70905693  0.38495577    -0.04400
C324        C  0.75821209  0.72839464  0.41410077    -0.01600
C325        C  0.80295437  0.74718198  0.41343736     0.03400
C326        C  0.82857951  0.74705805  0.38358868    -0.04400
C327        C  0.80961551  0.72781556  0.35448416    -0.01600
C328        C  0.76492814  0.70915482  0.35506998     0.03400
C329        C  0.73257442  0.72740315  0.44509037     0.38100
C330        C  0.83661393  0.72549163  0.32415383     0.38100
C331        C  0.74516227  0.69070550  0.32468451     0.36500
C332        C  0.82298961  0.76576687  0.44363454     0.36500
N333        N  0.72950659  0.67612180  0.30040918    -0.38300
N334        N  0.83885773  0.78018559  0.46788121    -0.38300
N335        N  0.85764472  0.72255157  0.29977743    -0.37800
N336        N  0.71241895  0.72671068  0.46994788    -0.37800
C337        C  0.60584066  0.69373061  0.29197126    -0.04400
C338        C  0.59157888  0.66801839  0.26410640    -0.01600
C339        C  0.59103653  0.68829794  0.23201893     0.03400
C340        C  0.60630576  0.73458658  0.22711528    -0.04400
C341        C  0.62149387  0.75973007  0.25554294    -0.01600
C342        C  0.62168967  0.73922525  0.28736479     0.03400
C343        C  0.57752698  0.62037243  0.26831259     0.38100
C344        C  0.63793330  0.80684249  0.25289221     0.38100
C345        C  0.64116573  0.76445579  0.31526466     0.36500
C346        C  0.57441612  0.66065193  0.20446515     0.36500
N347        N  0.65700679  0.78453366  0.33731843    -0.38300
N348        N  0.56093784  0.63828615  0.18272993    -0.38300
N349        N  0.65122702  0.84434136  0.25119021    -0.37800
N350        N  0.56667566  0.58225421  0.27141732    -0.37800
C351        C  0.28079172  0.16824345  0.39644004    -0.04400
C352        C  0.27103893  0.19989293  0.42210258    -0.01600
C353        C  0.28939426  0.24476159  0.42078708     0.03400
C354        C  0.31543435  0.25890335  0.39278827    -0.04400
C355        C  0.32481304  0.22695289  0.36698042    -0.01600
C356        C  0.30864775  0.18139960  0.36935534     0.03400
C357        C  0.24203147  0.18622054  0.44984259     0.38100
C358        C  0.34917160  0.24128417  0.33712685     0.38100
C359        C  0.31987943  0.14827039  0.34349698     0.36500
C360        C  0.28276856  0.27559762  0.44882075     0.36500
N361        N  0.32938720  0.12191058  0.32298854    -0.38300
N362        N  0.27773865  0.29997116  0.47132993    -0.38300
N363        N  0.36833003  0.25270430  0.31322826    -0.37800
N364        N  0.21870389  0.17546479  0.47188698    -0.37800
C365        C  0.27264105  0.39362862  0.23173818    -0.04400
C366        C  0.32086609  0.40123542  0.23505105    -0.01600
C367        C  0.34175367  0.40249822  0.26683264     0.03400
C368        C  0.31534628  0.39474488  0.29585761    -0.04400
C369        C  0.26786198  0.38470472  0.29263132    -0.01600
C370        C  0.24656650  0.38463940  0.26109814     0.03400
C371        C  0.35023517  0.40514174  0.20590799     0.38100
C372        C  0.24083732  0.37165197  0.32167194     0.38100
C373        C  0.19781616  0.37347786  0.25959942     0.36500
C374        C  0.39074860  0.41179792  0.26941626     0.36500
N375        N  0.15916864  0.36378240  0.25886287    -0.38300
N376        N  0.42985299  0.41903431  0.27130724    -0.38300
N377        N  0.21924062  0.36109351  0.34467883    -0.37800
N378        N  0.37390727  0.40785467  0.18277935    -0.37800
C379        C  0.42763693  0.51103456  0.38867746    -0.04400
C380        C  0.43542138  0.53707846  0.35957286    -0.01600
C381        C  0.46856627  0.57248615  0.35973555     0.03400
C382        C  0.49516616  0.58022140  0.38850321    -0.04400
C383        C  0.48418224  0.55723378  0.41841590    -0.01600
C384        C  0.44974120  0.52321366  0.41862474     0.03400
C385        C  0.41052054  0.52633957  0.32930671     0.38100
C386        C  0.51006933  0.56662334  0.44852148     0.38100
C387        C  0.43902251  0.49879603  0.44921246     0.36500
C388        C  0.47575426  0.60060828  0.33036761     0.36500
N389        N  0.43035086  0.47967350  0.47371829    -0.38300
N390        N  0.48070984  0.62371745  0.30715250    -0.38300
N391        N  0.53048092  0.57378322  0.47268770    -0.37800
N392        N  0.39058841  0.51791136  0.30514529    -0.37800
C393        C  0.45356713  0.09759792  0.98916175    -0.04400
C394        C  0.44180877  0.05079117  0.99549890    -0.01600
C395        C  0.43058360  0.03595235  0.02809539     0.03400
C396        C  0.43048165  0.06726605  0.05491201    -0.04400
C397        C  0.44698582  0.11239461  0.04953521    -0.01600
C398        C  0.45915254  0.12731451  0.01714169     0.03400
C399        C  0.44199716  0.01697559  0.96889612     0.38100
C400        C  0.44951952  0.14457309  0.07715085     0.38100
C401        C  0.47713482  0.17364496  0.01332303     0.36500
C402        C  0.42076525  0.98773612  0.03422185     0.36500
N403        N  0.49187659  0.21048639  0.01063714    -0.38300
N404        N  0.41381209  0.94899923  0.03869898    -0.38300
N405        N  0.45164456  0.17026649  0.09910964    -0.37800
N406        N  0.44212470  0.98974078  0.94786050    -0.37800
C407        C  0.65950406  0.87090359  0.97629536    -0.04400
C408        C  0.68409547  0.88766648  0.00447442    -0.01600
C409        C  0.67134431  0.87454736  0.03704258     0.03400
C410        C  0.63318374  0.84518052  0.04250202    -0.04400
C411        C  0.60663746  0.83110878  0.01476691    -0.01600
C412        C  0.61959000  0.84372234  0.98204746     0.03400
C413        C  0.72355292  0.91793705  0.00071765     0.38100
C414        C  0.56589433  0.80298639  0.01951987     0.38100
C415        C  0.59188296  0.82697414  0.95453201     0.36500
C416        C  0.69988384  0.88955763  0.06471885     0.36500
N417        N  0.56952374  0.81342665  0.93283682    -0.38300
N418        N  0.72279938  0.90159371  0.08657881    -0.38300
N419        N  0.53358925  0.78015297  0.02283835    -0.37800
N420        N  0.75532219  0.94174377  0.99823733    -0.37800
C421        C  0.65569741  0.01569873  0.88071437    -0.04400
C422        C  0.63248284  0.03111207  0.85180359    -0.01600
C423        C  0.60078785  0.06774110  0.85383621     0.03400
C424        C  0.58967827  0.08707745  0.88499574    -0.04400
C425        C  0.61572717  0.07497370  0.91328558    -0.01600
C426        C  0.64921533  0.03962961  0.91107507     0.03400
C427        C  0.63806224  0.00696792  0.82040771     0.38100
C428        C  0.60492098  0.09564865  0.94525002     0.38100
C429        C  0.67284208  0.02463713  0.94095517     0.36500
C430        C  0.57798704  0.08431886  0.82397482     0.36500
N431        N  0.69128707  0.01304917  0.96507895    -0.38300
N432        N  0.56041886  0.09768105  0.79997729    -0.38300
N433        N  0.59605415  0.11209172  0.97071220    -0.37800
N434        N  0.64153780  0.98746687  0.79540537    -0.37800
C435        C  0.63933474  0.60705326  0.48155422    -0.04400
C436        C  0.65469515  0.56167994  0.48954929    -0.01600
C437        C  0.66700506  0.55003692  0.52251819     0.03400
C438        C  0.66353468  0.58297762  0.54819976    -0.04400
C439        C  0.64644300  0.62740874  0.54092331    -0.01600
C440        C  0.63446883  0.63954600  0.50800289     0.03400
C441        C  0.65754570  0.52600050  0.46430342     0.38100
C442        C  0.64313450  0.66176837  0.56716816     0.38100
C443        C  0.61832792  0.68626118  0.50198965     0.36500
C444        C  0.68235386  0.50349763  0.53018504     0.36500
N445        N  0.60555121  0.72363422  0.49754894    -0.38300
N446        N  0.69453077  0.46641659  0.53637580    -0.38300
N447        N  0.64044543  0.68912938  0.58802201    -0.37800
N448        N  0.66002752  0.49731913  0.44438404    -0.37800
C449        C  0.43725724  0.33686304  0.54919374    -0.04400
C450        C  0.39401114  0.35753041  0.54283168    -0.01600
C451        C  0.38194850  0.37158169  0.51034568     0.03400
C452        C  0.41292263  0.36473895  0.48313449    -0.04400
C453        C  0.45732182  0.34595268  0.49012416    -0.01600
C454        C  0.46916429  0.33209739  0.52280417     0.03400
C455        C  0.36050055  0.36268621  0.56953981     0.38100
C456        C  0.49171898  0.34081454  0.46409933     0.38100
C457        C  0.51504207  0.31401695  0.52932838     0.36500
C458        C  0.33684183  0.39255797  0.50573107     0.36500
N459        N  0.55164229  0.29968344  0.53442709    -0.38300
N460        N  0.30079965  0.40918906  0.50245799    -0.38300
N461        N  0.51937289  0.33655885  0.44352497    -0.37800
N462        N  0.33376497  0.36681282  0.59074336    -0.37800
C463        C  0.48069155  0.23742199  0.73445939    -0.04400
C464        C  0.48804085  0.26555553  0.76260395    -0.01600
C465        C  0.48612528  0.24680987  0.79510278     0.03400
C466        C  0.47653312  0.19910834  0.80024823    -0.04400
C467        C  0.46997562  0.17088349  0.77166142    -0.01600
C468        C  0.47245573  0.18981427  0.73922878     0.03400
C469        C  0.49807606  0.31424106  0.75823875     0.38100
C470        C  0.46010957  0.12204752  0.77491700     0.38100
C471        C  0.46389863  0.16020783  0.71075459     0.36500
C472        C  0.49305246  0.27788113  0.82295561     0.36500
N473        N  0.45697178  0.13653638  0.68814640    -0.38300
N474        N  0.49876983  0.30298187  0.84493578    -0.38300
N475        N  0.45212121  0.08310579  0.77718455    -0.37800
N476        N  0.50586824  0.35305967  0.75482252    -0.37800
C477        C  0.57948548  0.36528298  0.63604415    -0.04400
C478        C  0.62133999  0.35977112  0.65356490    -0.01600
C479        C  0.65449134  0.39556318  0.65313643     0.03400
C480        C  0.64529514  0.43665672  0.63542298    -0.04400
C481        C  0.60544334  0.43992244  0.61546975    -0.01600
C482        C  0.57286387  0.40444348  0.61569374     0.03400
C483        C  0.62898260  0.31879350  0.67347446     0.38100
C484        C  0.59641211  0.48085668  0.59558001     0.38100
C485        C  0.53140949  0.40974634  0.59579129     0.36500
C486        C  0.69661446  0.39124477  0.67222243     0.36500
N487        N  0.49891737  0.41583894  0.57969714    -0.38300
N488        N  0.73036956  0.38776640  0.68735669    -0.38300
N489        N  0.58763019  0.51292834  0.57962496    -0.37800
N490        N  0.63512982  0.28603431  0.68935642    -0.37800
C491        C  0.79393543  0.66654955  0.89510588    -0.04400
C492        C  0.76049104  0.67755991  0.87099447    -0.01600
C493        C  0.74317900  0.72292675  0.86855387     0.03400
C494        C  0.75893030  0.75775833  0.89068990    -0.04400
C495        C  0.79003753  0.74533430  0.91644910    -0.01600
C496        C  0.80802249  0.70014334  0.91819589     0.03400
C497        C  0.74509051  0.64248278  0.84778965     0.38100
C498        C  0.80237814  0.77824334  0.94209022     0.38100
C499        C  0.84085500  0.68793109  0.94401639     0.36500
C500        C  0.71053464  0.73351007  0.84221339     0.36500
N501        N  0.86702090  0.67816538  0.96459670    -0.38300
N502        N  0.68459524  0.74173547  0.82113153    -0.38300
N503        N  0.81202447  0.80429824  0.96271413    -0.37800
N504        N  0.73255245  0.61464652  0.82931784    -0.37800
C505        C  0.90029209  0.55909425  0.98443853    -0.04400
C506        C  0.94682705  0.55356838  0.99429987    -0.01600
C507        C  0.96027901  0.56409609  0.02723067     0.03400
C508        C  0.92724205  0.57924575  0.05060702    -0.04400
C509        C  0.88035454  0.58128436  0.04152424    -0.01600
C510        C  0.86700424  0.57230711  0.00847965     0.03400
C511        C  0.98074863  0.53612044  0.97087503     0.38100
C512        C  0.84572025  0.59412835  0.06596228     0.38100
C513        C  0.81925219  0.57964881  0.99898668     0.36500
C514        C  0.00783495  0.55796028  0.03739104     0.36500
N515        N  0.78123534  0.58575660  0.99142264    -0.38300
N516        N  0.04573228  0.55236711  0.04541833    -0.38300
N517        N  0.81779744  0.60383731  0.08533517    -0.37800
N518        N  0.00778394  0.52200800  0.95225325    -0.37800
C519        C  0.80870927  0.53837165  0.79528006    -0.04400
C520        C  0.82052344  0.57378936  0.77235819    -0.01600
C521        C  0.79986847  0.57543470  0.74060276     0.03400
C522        C  0.76532395  0.54360927  0.73195935    -0.04400
C523        C  0.75228120  0.50927149  0.75480003    -0.01600
C524        C  0.77502831  0.50541743  0.78575192     0.03400
C525        C  0.85216363  0.61025625  0.78158524     0.38100
C526        C  0.71487500  0.47825979  0.74660946     0.38100
C527        C  0.76420460  0.46662366  0.80717847     0.36500
C528        C  0.81330871  0.61103117  0.71709767     0.36500
N529        N  0.75560088  0.43549666  0.82410443    -0.38300
N530        N  0.82449294  0.63950707  0.69861299    -0.38300
N531        N  0.68451585  0.45401031  0.74039949    -0.37800
N532        N  0.87715026  0.63958187  0.78882185    -0.41000
C533        C  0.33942479  0.20469635  0.89614098    -0.04400
C534        C  0.32077740  0.22839626  0.92374345    -0.01600
C535        C  0.27591498  0.24726328  0.92191906     0.03400
C536        C  0.24882184  0.24064103  0.89312999    -0.04400
C537        C  0.26720776  0.21660584  0.86573072    -0.01600
C538        C  0.31269598  0.19966708  0.86687017     0.03400
C539        C  0.34689636  0.23178803  0.95442392     0.38100
C540        C  0.23933140  0.20934356  0.83623950     0.38100
C541        C  0.33243112  0.17845310  0.83734397     0.36500
C542        C  0.25784465  0.27376874  0.94959899     0.36500
N543        N  0.34814460  0.16180528  0.81372670    -0.38300
N544        N  0.24410575  0.29530824  0.97172099    -0.38300
N545        N  0.21724389  0.20295199  0.81274378    -0.37800
N546        N  0.36757122  0.23416159  0.97898588    -0.37800
C547        C  0.13708131  0.33384656  0.98382958    -0.04400
C548        C  0.13718250  0.38071125  0.99376403    -0.01600
C549        C  0.14919315  0.39280241  0.02663439     0.03400
C550        C  0.16043952  0.35834406  0.05000659    -0.04400
C551        C  0.15619195  0.31151510  0.04115185    -0.01600
C552        C  0.14521050  0.29918313  0.00818833     0.03400
C553        C  0.12365061  0.41673164  0.97058529     0.38100
C554        C  0.16442719  0.27567937  0.06578358     0.38100
C555        C  0.14490491  0.25064256  0.99940075     0.36500
C556        C  0.14766975  0.44065648  0.03676787     0.36500
N557        N  0.14480512  0.21187697  0.99259224    -0.38300
N558        N  0.14534745  0.47902386  0.04436627    -0.38300
N559        N  0.17065694  0.24699796  0.08533551    -0.37800
N560        N  0.11275597  0.44553121  0.95221904    -0.37800
C561        C  0.92655749  0.42386261  0.88344067    -0.04400
C562        C  0.93856856  0.40109149  0.91331033    -0.01600
C563        C  0.97443036  0.36808612  0.91333518     0.03400
C564        C  0.99840905  0.35833589  0.88355766    -0.04400
C565        C  0.98326235  0.37772041  0.85324867    -0.01600
C566        C  0.94714120  0.41023099  0.85316708     0.03400
C567        C  0.91686902  0.41449537  0.94440545     0.38100
C568        C  0.00617727  0.36546149  0.82234243     0.38100
C569        C  0.93202437  0.43084956  0.82208858     0.36500
C570        C  0.98916467  0.34709707  0.94437500     0.36500
N571        N  0.91973658  0.44718503  0.79732348    -0.38300
N572        N  0.00095859  0.33033878  0.96912005    -0.38300
N573        N  0.02462713  0.35559766  0.79779144    -0.37800
N574        N  0.89959650  0.42533188  0.96918737    -0.37800
C575        C  0.34297470  0.22494474  0.63898973    -0.04400
C576        C  0.32251928  0.21006061  0.66891033    -0.01600
C577        C  0.27748657  0.19232312  0.66877876     0.03400
C578        C  0.25127100  0.19250092  0.63900566    -0.04400
C579        C  0.27163667  0.20820078  0.60909933    -0.01600
C580        C  0.31783735  0.22323672  0.60897288     0.03400
C581        C  0.34721808  0.21443379  0.70016093     0.38100
C582        C  0.24550908  0.20809081  0.57832122     0.38100
C583        C  0.33920531  0.23780058  0.57805467     0.36500
C584        C  0.25776091  0.17565649  0.69978948     0.36500
N585        N  0.35611183  0.24897563  0.55323413    -0.38300
N586        N  0.24227420  0.16241693  0.72457364    -0.38300
N587        N  0.22462563  0.20813871  0.55378958    -0.37800
N588        N  0.36615998  0.21838616  0.72532081    -0.37800
C589        C  0.15044295  0.08025179  0.55478546    -0.04400
C590        C  0.19751920  0.07791462  0.54603367    -0.01600
C591        C  0.21089361  0.06856870  0.51280685     0.03400
C592        C  0.17723566  0.05974143  0.48797924    -0.04400
C593        C  0.13022496  0.05824601  0.49763895    -0.01600
C594        C  0.11700275  0.06887011  0.53071961     0.03400
C595        C  0.23241628  0.08670723  0.57106970     0.38100
C596        C  0.09522352  0.04492740  0.47378356     0.38100
C597        C  0.06890328  0.06664469  0.54023280     0.36500
C598        C  0.25935258  0.07103910  0.50407219     0.36500
N599        N  0.03042775  0.06388477  0.54746675    -0.38300
N600        N  0.29803012  0.07327073  0.49721639    -0.38300
N601        N  0.06724474  0.03418000  0.45483332    -0.37800
N602        N  0.26039183  0.09323934  0.59100782    -0.37800
C603        C  0.11012361  0.25711736  0.79133077    -0.04400
C604        C  0.07148704  0.23061866  0.78151362    -0.01600
C605        C  0.07047212  0.20936539  0.74988887     0.03400
C606        C  0.10769572  0.21475493  0.72771698    -0.04400
C607        C  0.14292121  0.24633737  0.73558672    -0.01600
C608        C  0.14473001  0.26681322  0.76744927     0.03400
C609        C  0.03186693  0.22661555  0.80341245     0.38100
C610        C  0.17669369  0.25888597  0.71057856     0.38100
C611        C  0.18328864  0.29633178  0.77576243     0.36500
C612        C  0.02985312  0.18443425  0.73938015     0.36500
N613        N  0.21414758  0.31977959  0.78232731    -0.38300
N614        N  0.99665805  0.16577380  0.73103525    -0.38300
N615        N  0.20319161  0.27016470  0.69065742    -0.37800
N616        N  0.00019431  0.22378123  0.82082447    -0.37800
C617        C  0.80203597  0.77465303  0.63059442    -0.04400
C618        C  0.81612539  0.74045626  0.60789401    -0.01600
C619        C  0.79702885  0.69592847  0.60966837     0.03400
C620        C  0.76561371  0.68466625  0.63549823    -0.04400
C621        C  0.75112119  0.71973482  0.65790551    -0.01600
C622        C  0.76818267  0.76481135  0.65463584     0.03400
C623        C  0.84928907  0.75157346  0.58204722     0.38100
C624        C  0.71979937  0.70975572  0.68519203     0.38100
C625        C  0.75110928  0.80106856  0.67635003     0.36500
C626        C  0.80836066  0.66269131  0.58391961     0.36500
N627        N  0.73679829  0.82986347  0.69342714    -0.38300
N628        N  0.81716374  0.63638410  0.56320568    -0.38300
N629        N  0.69483263  0.70206985  0.70697971    -0.37800
N630        N  0.87559496  0.76031451  0.56132888    -0.37800
C631        C  0.90870143  0.87814176  0.54064991    -0.04400
C632        C  0.88448247  0.89613051  0.51271936    -0.01600
C633        C  0.89519556  0.88129355  0.48005684     0.03400
C634        C  0.93257384  0.85067963  0.47410172    -0.04400
C635        C  0.95875571  0.83514268  0.50167189    -0.01600
C636        C  0.94647278  0.84772687  0.53450894     0.03400
C637        C  0.84808346  0.93013002  0.51697068     0.38100
C638        C  0.99853213  0.80540722  0.49679279     0.38100
C639        C  0.97251625  0.82726137  0.56169980     0.36500
C640        C  0.86527365  0.89562409  0.45293775     0.36500
N641        N  0.99335461  0.81043285  0.58309658    -0.38300
N642        N  0.84105288  0.90677405  0.43148441    -0.38300
N643        N  0.03004903  0.78126189  0.49369434    -0.37800
N644        N  0.81906718  0.95728208  0.52006909    -0.37800
C645        C  0.81348030  0.90311235  0.72923515    -0.04400
C646        C  0.79351085  0.94331749  0.74302091    -0.01600
C647        C  0.77264269  0.94183980  0.77483070     0.03400
C648        C  0.77027943  0.89986428  0.79256847    -0.04400
C649        C  0.79254663  0.86043653  0.77969417    -0.01600
C650        C  0.81417943  0.86197983  0.74826582     0.03400
C651        C  0.79647261  0.98672640  0.72518633     0.38100
C652        C  0.79527188  0.81866978  0.79946946     0.38100
C653        C  0.83630338  0.82067261  0.73541072     0.36500
C654        C  0.75564964  0.98396597  0.78990451     0.36500
N655        N  0.85399146  0.78767477  0.72535471    -0.38300
N656        N  0.74316305  0.01804442  0.80189777    -0.38300
N657        N  0.79866490  0.78527328  0.81503868    -0.37800
N658        N  0.79918290  0.02132190  0.71094954    -0.37800
C659        C  0.92502405  0.02064441  0.64596365    -0.04400
C660        C  0.94853283  0.02808855  0.67612301    -0.01600
C661        C  0.98434515  0.06047217  0.67753143     0.03400
C662        C  0.99473137  0.08791144  0.64927928    -0.04400
C663        C  0.96416654  0.08729074  0.62182929    -0.01600
C664        C  0.93029080  0.05247161  0.61962711     0.03400
C665        C  0.93648409  0.00135489  0.70547468     0.38100
C666        C  0.96888694  0.12061481  0.59515823     0.38100
C667        C  0.90345279  0.04743381  0.58944077     0.36500
C668        C  0.01162696  0.06373772  0.70770459     0.36500
N669        N  0.88207115  0.04340630  0.56532047    -0.38300
N670        N  0.03333656  0.06564997  0.73181770    -0.38300
N671        N  0.97229597  0.14751633  0.57400213    -0.37800
N672        N  0.92638699  0.98025356  0.72882631    -0.37800
loop_ 
_geom_bond_atom_site_label_1 
_geom_bond_atom_site_label_2 
_geom_bond_distance 
_geom_bond_site_symmetry_2 
_ccdc_geom_bond_type 
O1           Ni9   1.914       .  S
O1           C11   1.280       .  A
O2           Ni9   1.924       .  S
O2           C12   1.281       .  A
O3           Ni9   1.925       .  S
O3           C13   1.284       .  A
O4           Ni9   1.924       .  S
O4           C14   1.283       .  A
O5          Ni10   1.913       .  S
O5           C14   1.280       .  A
O6          Ni10   1.911       .  S
O6           C13   1.279       .  A
O7          Ni10   1.903       .  S
O7           C12   1.280       .  A
O8          Ni10   1.906       .  S
O8           C11   1.278       .  A
Ni9         Ni10   2.385       .  S
C11         C617   1.470       .  S
C12         C659   1.481   1_565  S
C13         C631   1.514       .  S
C14         C645   1.489       .  S
O15         Ni23   1.932       .  S
O15          C25   1.286       .  A
O16         Ni23   1.935       .  S
O16          C26   1.285       .  A
O17         Ni23   1.918       .  S
O17          C27   1.278       .  A
O18         Ni23   1.919       .  S
O18          C28   1.280       .  A
O19         Ni24   1.936       .  S
O19          C28   1.285       .  A
O20         Ni24   1.934       .  S
O20          C27   1.285       .  A
O21         Ni24   1.898       .  S
O21          C26   1.278       .  A
O22         Ni24   1.894       .  S
O22          C25   1.276       .  A
Ni23        Ni24   2.387       .  S
C25         C578   1.483       .  S
C26         C662   1.491   1_455  S
C27         C606   1.486       .  S
C28         C589   1.492       .  S
O29         Ni37   1.926       .  S
O29          C39   1.282       .  A
O30         Ni37   1.922       .  S
O30          C40   1.281       .  A
O31         Ni37   1.913       .  S
O31          C41   1.281       .  A
O32         Ni37   1.907       .  S
O32          C42   1.279       .  A
O33         Ni38   1.921       .  S
O33          C42   1.283       .  A
O34         Ni38   1.925       .  S
O34          C41   1.283       .  A
O35         Ni38   1.905       .  S
O35          C40   1.279       .  A
O36         Ni38   1.908       .  S
O36          C39   1.277       .  A
Ni37        Ni38   2.388       .  S
C39         C536   1.476       .  S
C40         C564   1.475   1_455  S
C41         C603   1.496       .  S
C42         C547   1.494       .  S
O43         Ni51   1.924       .  S
O43          C53   1.282       .  A
O44         Ni51   1.925       .  S
O44          C54   1.282       .  A
O45         Ni51   1.909       .  S
O45          C55   1.280       .  A
O46         Ni51   1.911       .  S
O46          C56   1.280       .  A
O47         Ni52   1.922       .  S
O47          C56   1.283       .  A
O48         Ni52   1.923       .  S
O48          C55   1.283       .  A
O49         Ni52   1.902       .  S
O49          C54   1.278       .  A
O50         Ni52   1.906       .  S
O50          C53   1.278       .  A
Ni51        Ni52   2.388       .  S
C53         C491   1.476       .  S
C54         C561   1.476       .  S
C55         C505   1.489       .  S
C56         C519   1.501       .  S
O57         Ni65   1.928       .  S
O57          C67   1.283       .  A
O58         Ni65   1.932       .  S
O58          C68   1.283       .  A
O59         Ni65   1.922       .  S
O59          C69   1.282       .  A
O60         Ni65   1.916       .  S
O60          C70   1.281       .  A
O61         Ni66   1.914       .  S
O61          C70   1.282       .  A
O62         Ni66   1.916       .  S
O62          C69   1.282       .  A
O63         Ni66   1.900       .  S
O63          C68   1.278       .  A
O64         Ni66   1.899       .  S
O64          C67   1.276       .  A
Ni65        Ni66   2.389       .  S
C67         C575   1.472       .  S
C68         C477   1.479       .  S
C69         C463   1.497       .  S
C70         C449   1.493       .  S
O71         Ni79   1.922       .  S
O71          C81   1.284       .  A
O72         Ni79   1.930       .  S
O72          C82   1.283       .  A
O73         Ni79   1.911       .  S
O73          C83   1.279       .  A
O74         Ni79   1.912       .  S
O74          C84   1.279       .  A
O75         Ni80   1.923       .  S
O75          C84   1.282       .  A
O76         Ni80   1.917       .  S
O76          C83   1.282       .  A
O77         Ni80   1.898       .  S
O77          C82   1.278       .  A
O78         Ni80   1.895       .  S
O78          C81   1.277       .  A
Ni79        Ni80   2.389       .  S
C81         C620   1.490       .  S
C82         C480   1.477       .  S
C83         C438   1.486       .  S
C84         C522   1.478       .  S
O85         Ni93   1.929       .  S
O85          C95   1.285       .  A
O86         Ni93   1.931       .  S
O86          C96   1.284       .  A
O87         Ni93   1.904       .  S
O87          C97   1.278       .  A
O88         Ni93   1.911       .  S
O88          C98   1.277       .  A
O89         Ni94   1.933       .  S
O89          C98   1.285       .  A
O90         Ni94   1.927       .  S
O90          C97   1.284       .  A
O91         Ni94   1.898       .  S
O91          C96   1.277       .  A
O92         Ni94   1.901       .  S
O92          C95   1.277       .  A
Ni93        Ni94   2.382       .  S
C95         C494   1.497       .  S
C96         C421   1.482   1_565  S
C97         C407   1.510       .  S
C98         C648   1.483       .  S
O99        Ni107   1.932       .  S
O99         C109   1.284       .  A
O100       Ni107   1.926       .  S
O100        C110   1.281       .  A
O101       Ni107   1.915       .  S
O101        C111   1.280       .  A
O102       Ni107   1.917       .  S
O102        C112   1.281       .  A
O103       Ni108   1.929       .  S
O103        C112   1.285       .  A
O104       Ni108   1.926       .  S
O104        C111   1.284       .  A
O105       Ni108   1.897       .  S
O105        C110   1.277       .  A
O106       Ni108   1.896       .  S
O106        C109   1.276       .  A
Ni107      Ni108   2.380       .  S
C109        C533   1.483       .  S
C110        C424   1.475       .  S
C111        C466   1.515       .  S
C112        C393   1.516       .  S
O113       Ni121   1.922       .  S
O113        C123   1.283       .  A
O114       Ni121   1.920       .  S
O114        C124   1.280       .  A
O115       Ni121   1.906       .  S
O115        C125   1.280       .  A
O116       Ni121   1.904       .  S
O116        C126   1.278       .  A
O117       Ni122   1.924       .  S
O117        C126   1.283       .  A
O118       Ni122   1.923       .  S
O118        C125   1.283       .  A
O119       Ni122   1.906       .  S
O119        C124   1.278       .  A
O120       Ni122   1.900       .  S
O120        C123   1.277       .  A
Ni121      Ni122   2.383       .  S
C123        C354   1.483       .  S
C124        C379   1.471       .  S
C125        C368   1.493       .  S
C126        C452   1.512       .  S
O127       Ni135   1.922       .  S
O127        C137   1.282       .  A
O128       Ni135   1.919       .  S
O128        C138   1.279       .  A
O129       Ni135   1.908       .  S
O129        C139   1.279       .  A
O130       Ni135   1.910       .  S
O130        C140   1.281       .  A
O131       Ni136   1.921       .  S
O131        C140   1.282       .  A
O132       Ni136   1.922       .  S
O132        C139   1.283       .  A
O133       Ni136   1.910       .  S
O133        C138   1.279       .  A
O134       Ni136   1.904       .  S
O134        C137   1.278       .  A
Ni135      Ni136   2.386       .  S
C137        C323   1.477       .  S
C138        C382   1.472       .  S
C139        C435   1.509       .  S
C140        C337   1.488       .  S
O141       Ni149   1.932       .  S
O141        C151   1.285       .  A
O142       Ni149   1.931   1_455  S
O142        C152   1.284       .  A
O143       Ni149   1.914       .  S
O143        C153   1.280       .  A
O144       Ni149   1.914       .  S
O144        C154   1.278       .  A
O145       Ni150   1.925       .  S
O145        C154   1.283       .  A
O146       Ni150   1.922       .  S
O146        C153   1.282       .  A
O147       Ni150   1.894       .  S
O147        C152   1.277   1_655  A
O148       Ni150   1.895       .  S
O148        C151   1.277       .  A
Ni149      Ni150   2.388       .  S
C151        C281   1.483       .  S
C152        C312   1.492       .  S
C153        C508   1.480       .  S
C154        C298   1.480       .  S
O155       Ni163   1.919       .  S
O155        C165   1.280       .  A
O156       Ni163   1.918       .  S
O156        C166   1.279       .  A
O157       Ni163   1.924       .  S
O157        C167   1.283       .  A
O158       Ni163   1.924       .  S
O158        C168   1.283       .  A
O159       Ni164   1.909       .  S
O159        C168   1.278       .  A
O160       Ni164   1.904       .  S
O160        C167   1.278       .  A
O161       Ni164   1.910       .  S
O161        C166   1.282       .  A
O162       Ni164   1.906       .  S
O162        C165   1.279       .  A
Ni163      Ni164   2.386       .  S
C165        C267   1.473       .  S
C166        C309   1.488       .  S
C167        C365   1.508       .  S
C168        C550   1.480       .  S
O169       Ni177   1.930       .  S
O169        C179   1.285       .  A
O170       Ni177   1.936   1_565  S
O170        C180   1.285       .  A
O171       Ni177   1.928       .  S
O171        C181   1.281       .  A
O172       Ni177   1.922       .  S
O172        C182   1.282       .  A
O173       Ni178   1.927       .  S
O173        C182   1.283       .  A
O174       Ni178   1.931       .  S
O174        C181   1.284       .  A
O175       Ni178   1.894   1_565  S
O175        C180   1.278       .  A
O176       Ni178   1.893       .  S
O176        C179   1.275       .  A
Ni177      Ni178   2.387       .  S
C179        C270   1.477       .  S
C180        C253   1.492       .  S
C181        C242   1.491       .  S
C182        C396   1.495       .  S
O183       Ni191   1.928       .  S
O183        C193   1.283       .  A
O184       Ni191   1.936       .  S
O184        C194   1.284       .  A
O185       Ni191   1.917       .  S
O185        C195   1.281       .  A
O186       Ni191   1.919       .  S
O186        C196   1.281       .  A
O187       Ni192   1.913       .  S
O187        C196   1.281       .  A
O188       Ni192   1.913       .  S
O188        C195   1.281       .  A
O189       Ni192   1.894       .  S
O189        C194   1.278       .  A
O190       Ni192   1.903       .  S
O190        C193   1.276       .  A
Ni191      Ni192   2.381       .  S
C193        C284   1.475       .  S
C194        C256   1.486       .  S
C195        C410   1.499       .  S
C196        C340   1.514       .  S
O197       Ni205   1.917       .  S
O197        C207   1.280       .  A
O198       Ni205   1.926   1_455  S
O198        C208   1.281       .  A
O199       Ni205   1.922       .  S
O199        C209   1.283       .  A
O200       Ni205   1.921       .  S
O200        C210   1.283       .  A
O201       Ni206   1.912       .  S
O201        C210   1.280       .  A
O202       Ni206   1.917       .  S
O202        C209   1.281       .  A
O203       Ni206   1.902   1_455  S
O203        C208   1.280       .  A
O204       Ni206   1.913       .  S
O204        C207   1.279       .  A
Ni205      Ni206   2.384       .  S
C207        C326   1.473       .  S
C208        C225   1.484       .  S
C209        C634   1.505       .  S
C210        C295   1.502       .  S
O211       Ni219   1.922       .  S
O211        C221   1.282       .  A
O212       Ni219   1.923   1_565  S
O212        C222   1.281       .  A
O213       Ni219   1.922       .  S
O213        C223   1.282       .  A
O214       Ni219   1.925       .  S
O214        C224   1.283       .  A
O215       Ni220   1.930       .  S
O215        C224   1.285       .  A
O216       Ni220   1.930       .  S
O216        C223   1.284       .  A
O217       Ni220   1.898       .  S
O217        C222   1.278   1_545  A
O218       Ni220   1.900       .  S
O218        C221   1.276       .  A
Ni219      Ni220   2.387       .  S
C221        C351   1.470       .  S
C222        C228   1.477       .  S
C223        C239   1.504       .  S
C224        C592   1.506       .  S
C225        C226   1.413       .  A
C225        C230   1.412       .  A
C226        C227   1.412       .  A
C226        C231   1.447       .  S
C227        C228   1.411       .  A
C227        C234   1.450       .  S
C228        C229   1.412       .  A
C229        C230   1.405       .  A
C229        C232   1.453       .  S
C230        C233   1.452       .  S
C231        N238   1.156       .  T
C232        N237   1.157       .  T
C233        N235   1.157       .  T
C234        N236   1.157       .  T
C239        C240   1.419       .  A
C239        C244   1.420   1_545  A
C240        C241   1.415       .  A
C240        C245   1.451       .  S
C241        C242   1.410       .  A
C241        C248   1.449       .  S
C242        C243   1.409   1_545  A
C243        C244   1.416       .  A
C243        C246   1.449       .  S
C244        C247   1.451       .  S
C245        N252   1.157       .  T
C246        N251   1.157       .  T
C247        N249   1.157       .  T
C248        N250   1.157       .  T
C253        C254   1.417       .  A
C253        C258   1.416       .  A
C254        C255   1.404       .  A
C254        C259   1.453       .  S
C255        C256   1.412       .  A
C255        C262   1.454       .  S
C256        C257   1.412       .  A
C257        C258   1.417       .  A
C257        C260   1.447       .  S
C258        C261   1.448       .  S
C259        N266   1.158       .  T
C260        N265   1.157       .  T
C261        N263   1.157       .  T
C262        N264   1.157       .  T
C267        C268   1.411       .  A
C267        C272   1.410       .  A
C268        C269   1.412       .  A
C268        C273   1.450       .  S
C269        C270   1.413       .  A
C269        C276   1.451       .  S
C270        C271   1.414       .  A
C271        C272   1.404       .  A
C271        C274   1.454       .  S
C272        C275   1.452       .  S
C273        N280   1.157       .  T
C274        N279   1.158       .  T
C275        N277   1.157       .  T
C276        N278   1.157       .  T
C281        C282   1.416       .  A
C281        C286   1.415       .  A
C282        C283   1.405       .  A
C282        C287   1.454       .  S
C283        C284   1.409       .  A
C283        C290   1.451       .  S
C284        C285   1.411       .  A
C285        C286   1.414       .  A
C285        C288   1.451       .  S
C286        C289   1.450       .  S
C287        N294   1.157       .  T
C288        N293   1.157       .  T
C289        N291   1.158       .  T
C290        N292   1.157       .  T
C295        C296   1.424       .  A
C295        C300   1.422   1_655  A
C296        C297   1.411       .  A
C296        C301   1.452       .  S
C297        C298   1.408       .  A
C297        C304   1.452       .  S
C298        C299   1.406   1_655  A
C299        C300   1.412       .  A
C299        C302   1.449       .  S
C300        C303   1.451       .  S
C301        N308   1.158       .  T
C302        N307   1.157       .  T
C303        N305   1.157       .  T
C304        N306   1.157       .  T
C309        C310   1.409       .  A
C309        C314   1.414       .  A
C310        C311   1.404       .  A
C310        C315   1.452       .  S
C311        C312   1.419       .  A
C311        C318   1.453       .  S
C312        C313   1.417       .  A
C313        C314   1.415       .  A
C313        C316   1.450       .  S
C314        C317   1.449       .  S
C315        N322   1.157       .  T
C316        N321   1.158       .  T
C317        N319   1.158       .  T
C318        N320   1.158       .  T
C323        C324   1.412       .  A
C323        C328   1.413       .  A
C324        C325   1.410       .  A
C324        C329   1.450       .  S
C325        C326   1.410       .  A
C325        C332   1.451       .  S
C326        C327   1.410       .  A
C327        C328   1.407       .  A
C327        C330   1.449       .  S
C328        C331   1.453       .  S
C329        N336   1.157       .  T
C330        N335   1.156       .  T
C331        N333   1.157       .  T
C332        N334   1.157       .  T
C337        C338   1.409       .  A
C337        C342   1.411       .  A
C338        C339   1.416       .  A
C338        C343   1.452       .  S
C339        C340   1.429       .  A
C339        C346   1.452       .  S
C340        C341   1.427       .  A
C341        C342   1.409       .  A
C341        C344   1.453       .  S
C342        C345   1.455       .  S
C343        N350   1.157       .  T
C344        N349   1.158       .  T
C345        N347   1.157       .  T
C346        N348   1.158       .  T
C351        C352   1.409       .  A
C351        C356   1.408       .  A
C352        C353   1.409       .  A
C352        C357   1.452       .  S
C353        C354   1.415       .  A
C353        C360   1.451       .  S
C354        C355   1.417       .  A
C355        C356   1.407       .  A
C355        C358   1.452       .  S
C356        C359   1.452       .  S
C357        N364   1.157       .  T
C358        N363   1.158       .  T
C359        N361   1.157       .  T
C360        N362   1.157       .  T
C365        C366   1.424       .  A
C365        C370   1.425       .  A
C366        C367   1.414       .  A
C366        C371   1.452       .  S
C367        C368   1.413       .  A
C367        C374   1.452       .  S
C368        C369   1.416       .  A
C369        C370   1.410       .  A
C369        C372   1.455       .  S
C370        C373   1.454       .  S
C371        N378   1.158       .  T
C372        N377   1.158       .  T
C373        N375   1.158       .  T
C374        N376   1.157       .  T
C379        C380   1.410       .  A
C379        C384   1.410       .  A
C380        C381   1.410       .  A
C380        C385   1.450       .  S
C381        C382   1.409       .  A
C381        C388   1.449       .  S
C382        C383   1.410       .  A
C383        C384   1.407       .  A
C383        C386   1.451       .  S
C384        C387   1.451       .  S
C385        N392   1.157       .  T
C386        N391   1.157       .  T
C387        N389   1.157       .  T
C388        N390   1.157       .  T
C393        C394   1.424       .  A
C393        C398   1.427   1_556  A
C394        C395   1.416   1_556  A
C394        C399   1.452       .  S
C395        C396   1.410       .  A
C395        C402   1.449   1_545  S
C396        C397   1.412       .  A
C397        C398   1.416       .  A
C397        C400   1.453       .  S
C398        C401   1.452       .  S
C399        N406   1.158   1_545  T
C400        N405   1.157       .  T
C401        N403   1.158       .  T
C402        N404   1.156       .  T
C407        C408   1.426   1_556  A
C407        C412   1.422       .  A
C408        C409   1.411       .  A
C408        C413   1.453       .  S
C409        C410   1.416       .  A
C409        C416   1.455       .  S
C410        C411   1.417       .  A
C411        C412   1.415   1_554  A
C411        C414   1.451       .  S
C412        C415   1.453       .  S
C413        N420   1.158   1_554  T
C414        N419   1.157       .  T
C415        N417   1.157       .  T
C416        N418   1.157       .  T
C421        C422   1.414       .  A
C421        C426   1.416       .  A
C422        C423   1.405       .  A
C422        C427   1.452       .  S
C423        C424   1.409       .  A
C423        C430   1.451       .  S
C424        C425   1.409       .  A
C425        C426   1.413       .  A
C425        C428   1.451       .  S
C426        C429   1.448       .  S
C427        N434   1.157   1_545  T
C428        N433   1.157       .  T
C429        N431   1.156       .  T
C430        N432   1.157       .  T
C435        C436   1.424       .  A
C435        C440   1.428       .  A
C436        C437   1.412       .  A
C436        C441   1.452       .  S
C437        C438   1.410       .  A
C437        C444   1.453       .  S
C438        C439   1.410       .  A
C439        C440   1.411       .  A
C439        C442   1.455       .  S
C440        C443   1.452       .  S
C441        N448   1.157       .  T
C442        N447   1.157       .  T
C443        N445   1.158       .  T
C444        N446   1.158       .  T
C449        C450   1.412       .  A
C449        C454   1.413       .  A
C450        C451   1.411       .  A
C450        C455   1.455       .  S
C451        C452   1.428       .  A
C451        C458   1.453       .  S
C452        C453   1.425       .  A
C453        C454   1.415       .  A
C453        C456   1.452       .  S
C454        C457   1.453       .  S
C455        N462   1.157       .  T
C456        N461   1.158       .  T
C457        N459   1.157       .  T
C458        N460   1.158       .  T
C463        C464   1.412       .  A
C463        C468   1.415       .  A
C464        C465   1.415       .  A
C464        C469   1.454       .  S
C465        C466   1.427       .  A
C465        C472   1.452       .  S
C466        C467   1.425       .  A
C467        C468   1.415       .  A
C467        C470   1.452       .  S
C468        C471   1.453       .  S
C469        N476   1.157       .  T
C470        N475   1.158       .  T
C471        N473   1.158       .  T
C472        N474   1.158       .  T
C477        C478   1.413       .  A
C477        C482   1.411       .  A
C478        C479   1.418       .  A
C478        C483   1.448       .  S
C479        C480   1.412       .  A
C479        C486   1.448       .  S
C480        C481   1.411       .  A
C481        C482   1.400       .  A
C481        C484   1.454       .  S
C482        C485   1.453       .  S
C483        N490   1.157       .  T
C484        N489   1.157       .  T
C485        N487   1.157       .  T
C486        N488   1.157       .  T
C491        C492   1.407       .  A
C491        C496   1.408       .  A
C492        C493   1.410       .  A
C492        C497   1.453       .  S
C493        C494   1.424       .  A
C493        C500   1.453       .  S
C494        C495   1.419       .  A
C495        C496   1.411       .  A
C495        C498   1.451       .  S
C496        C499   1.452       .  S
C497        N504   1.157       .  T
C498        N503   1.157       .  T
C499        N501   1.157       .  T
C500        N502   1.158       .  T
C505        C506   1.416       .  A
C505        C510   1.417   1_556  A
C506        C507   1.414   1_556  A
C506        C511   1.451       .  S
C507        C508   1.411       .  A
C507        C514   1.450   1_655  S
C508        C509   1.410       .  A
C509        C510   1.408       .  A
C509        C512   1.452       .  S
C510        C513   1.452   1_554  S
C511        N518   1.157   1_655  T
C512        N517   1.157       .  T
C513        N515   1.157       .  T
C514        N516   1.157       .  T
C519        C520   1.421       .  A
C519        C524   1.423       .  A
C520        C521   1.411       .  A
C520        C525   1.452       .  S
C521        C522   1.409       .  A
C521        C528   1.452       .  S
C522        C523   1.406       .  A
C523        C524   1.412       .  A
C523        C526   1.451       .  S
C524        C527   1.451       .  S
C525        N532   1.158       .  T
C526        N531   1.157       .  T
C527        N529   1.157       .  T
C528        N530   1.157       .  T
C533        C534   1.412       .  A
C533        C538   1.417       .  A
C534        C535   1.412       .  A
C534        C539   1.451       .  S
C535        C536   1.413       .  A
C535        C542   1.449       .  S
C536        C537   1.407       .  A
C537        C538   1.407       .  A
C537        C540   1.451       .  S
C538        C541   1.453       .  S
C539        N546   1.158       .  T
C540        N545   1.157       .  T
C541        N543   1.157       .  T
C542        N544   1.157       .  T
C547        C548   1.417       .  A
C547        C552   1.421   1_556  A
C548        C549   1.411   1_556  A
C548        C553   1.452       .  S
C549        C550   1.408       .  A
C549        C556   1.448       .  S
C550        C551   1.411       .  A
C551        C552   1.409       .  A
C551        C554   1.454       .  S
C552        C555   1.452   1_554  S
C553        N560   1.157       .  T
C554        N559   1.157       .  T
C555        N557   1.158       .  T
C556        N558   1.156       .  T
C561        C562   1.412       .  A
C561        C566   1.411       .  A
C562        C563   1.411       .  A
C562        C567   1.451       .  S
C563        C564   1.412       .  A
C563        C570   1.451       .  S
C564        C565   1.410       .  A
C565        C566   1.407       .  A
C565        C568   1.452   1_655  S
C566        C569   1.451       .  S
C567        N574   1.157       .  T
C568        N573   1.157       .  T
C569        N571   1.157       .  T
C570        N572   1.157   1_655  T
C575        C576   1.408       .  A
C575        C580   1.411       .  A
C576        C577   1.406       .  A
C576        C581   1.452       .  S
C577        C578   1.418       .  A
C577        C584   1.453       .  S
C578        C579   1.414       .  A
C579        C580   1.411       .  A
C579        C582   1.451       .  S
C580        C583   1.451       .  S
C581        N588   1.157       .  T
C582        N587   1.157       .  T
C583        N585   1.157       .  T
C584        N586   1.158       .  T
C589        C590   1.412       .  A
C589        C594   1.411       .  A
C590        C591   1.416       .  A
C590        C595   1.451       .  S
C591        C592   1.421       .  A
C591        C598   1.451       .  S
C592        C593   1.419       .  A
C593        C594   1.417       .  A
C593        C596   1.451       .  S
C594        C597   1.448       .  S
C595        N602   1.157       .  T
C596        N601   1.157       .  T
C597        N599   1.156       .  T
C598        N600   1.157       .  T
C603        C604   1.418       .  A
C603        C608   1.417       .  A
C604        C605   1.413       .  A
C604        C609   1.452       .  S
C605        C606   1.408       .  A
C605        C612   1.449       .  S
C606        C607   1.412       .  A
C607        C608   1.413       .  A
C607        C610   1.450       .  S
C608        C611   1.451       .  S
C609        N616   1.157       .  T
C610        N615   1.157       .  T
C611        N613   1.157       .  T
C612        N614   1.157   1_455  T
C617        C618   1.408       .  A
C617        C622   1.407       .  A
C618        C619   1.409       .  A
C618        C623   1.452       .  S
C619        C620   1.419       .  A
C619        C626   1.452       .  S
C620        C621   1.421       .  A
C621        C622   1.406       .  A
C621        C624   1.453       .  S
C622        C625   1.453       .  S
C623        N630   1.157       .  T
C624        N629   1.158       .  T
C625        N627   1.157       .  T
C626        N628   1.157       .  T
C631        C632   1.422       .  A
C631        C636   1.426       .  A
C632        C633   1.415       .  A
C632        C637   1.452       .  S
C633        C634   1.419       .  A
C633        C640   1.453       .  S
C634        C635   1.416       .  A
C635        C636   1.414       .  A
C635        C638   1.452       .  S
C636        C639   1.454       .  S
C637        N644   1.157       .  T
C638        N643   1.157   1_655  T
C639        N641   1.158       .  T
C640        N642   1.158       .  T
C645        C646   1.414       .  A
C645        C650   1.416       .  A
C646        C647   1.414       .  A
C646        C651   1.451       .  S
C647        C648   1.412       .  A
C647        C654   1.449       .  S
C648        C649   1.410       .  A
C649        C650   1.410       .  A
C649        C652   1.450       .  S
C650        C653   1.453       .  S
C651        N658   1.157   1_565  T
C652        N657   1.156       .  T
C653        N655   1.157       .  T
C654        N656   1.157   1_565  T
C659        C660   1.408       .  A
C659        C664   1.412       .  A
C660        C661   1.405       .  A
C660        C665   1.453       .  S
C661        C662   1.418       .  A
C661        C668   1.452   1_655  S
C662        C663   1.416       .  A
C663        C664   1.415       .  A
C663        C666   1.449       .  S
C664        C667   1.450       .  S
C665        N672   1.157   1_545  T
C666        N671   1.157       .  T
C667        N669   1.157       .  T
C668        N670   1.158       .  T
