geometry optimzed in LAMMPS
_audit_creation_date              2020-12-01 
_audit_creation_method            'lammps2cif' 
_symmetry_space_group_name_H-M    'P1' 
_symmetry_Int_Tables_number       1 
_symmetry_cell_setting            triclinic 
loop_ 
_symmetry_equiv_pos_as_xyz 
  x,y,z 
_cell_length_a                    38.39061897 
_cell_length_b                    38.26194253310399 
_cell_length_c                    38.5860717598111 
_cell_angle_alpha                 90.00076596435129 
_cell_angle_beta                  90.37599088914945 
_cell_angle_gamma                 90.21013683915521 
loop_ 
_atom_site_label 
_atom_site_type_symbol 
_atom_site_fract_x 
_atom_site_fract_y 
_atom_site_fract_z 
_atom_site_charge 
C1          C  0.33745858  0.21301132  0.52801631     0.79900
N2          N  0.32680394  0.22668896  0.49755723    -0.78400
C3          C  0.33269471  0.20981320  0.46750029     0.82300
N4          N  0.34936780  0.17862348  0.46787234    -0.78400
C5          C  0.36049491  0.16490286  0.49828576     0.82400
N6          N  0.35435388  0.18198896  0.52826699    -0.80100
C7          C  0.13994765  0.40565357  0.52358207     0.79900
N8          N  0.15360506  0.39685483  0.49220841    -0.78400
C9          C  0.13763542  0.40639292  0.46195737     0.82300
N10         N  0.10709155  0.42492218  0.46345476    -0.78400
C11         C  0.09296802  0.43433688  0.49467889     0.82400
N12         N  0.10954228  0.42422230  0.52456407    -0.80100
C13         C  0.13034437  0.52816120  0.36652118     0.79900
N14         N  0.09908050  0.52845069  0.38252691    -0.78400
C15         C  0.08172251  0.55862225  0.38750704     0.82300
N16         N  0.09588012  0.58928583  0.37655692    -0.78400
C17         C  0.12814668  0.58935224  0.36206472     0.82400
N18         N  0.14466502  0.55877781  0.35653064    -0.80100
C19         C  0.31914555  0.52981140  0.17356271     0.79900
N20         N  0.33730178  0.52790467  0.14313712    -0.78400
C21         C  0.34938937  0.55722055  0.12685088     0.82300
N22         N  0.34254492  0.58913518  0.14142007    -0.78400
C23         C  0.32458780  0.59191329  0.17201430     0.82400
N24         N  0.31327739  0.56192507  0.18782079    -0.80100
C25         C  0.48333830  0.20988945  0.34708859     0.79900
N26         N  0.45367471  0.22866338  0.34241260    -0.78400
C27         C  0.42265951  0.21699367  0.35515092     0.82300
N28         N  0.42147825  0.18554254  0.37263831    -0.78400
C29         C  0.45147886  0.16687483  0.37766867     0.82400
N30         N  0.48157516  0.17959528  0.36489489    -0.80100
C31         C  0.45772139  0.42044550  0.17877023     0.79900
N32         N  0.45713374  0.43706417  0.14772253    -0.78400
C33         C  0.48704657  0.44522016  0.13112985     0.82300
N34         N  0.51801780  0.43565783  0.14543392    -0.78400
C35         C  0.51881002  0.41927060  0.17685115     0.82400
N36         N  0.48865755  0.41151214  0.19312033    -0.80100
C37         C  0.11885126  0.37707243  0.96109073     0.79900
N38         N  0.10125693  0.40832860  0.96274145    -0.78400
C39         C  0.09369427  0.42367069  0.99390066     0.82300
N40         N  0.10482122  0.40766524  0.02352615    -0.78400
C41         C  0.12260497  0.37672111  0.02287700     0.82400
N42         N  0.12951531  0.36165741  0.99145898    -0.80100
C43         C  0.31764181  0.20625403  0.97103693     0.79900
N44         N  0.30249456  0.21214726  0.00175414    -0.78400
C45         C  0.31741283  0.20097143  0.03132987     0.82300
N46         N  0.34801210  0.18367751  0.03034571    -0.78400
C47         C  0.36338249  0.17712405  0.99962964     0.82400
N48         N  0.34857750  0.18897513  0.96984446    -0.80100
O49         O  0.10610667  0.33718460  0.74134906    -0.88500
C50         C  0.24200417  0.24502218  0.63294276     1.11500
O51         O  0.18500717  0.33215178  0.73899440    -1.36300
O52         O  0.17071327  0.21822347  0.67376427    -0.90000
O53         O  0.13193798  0.37598443  0.77640719    -0.90700
O54         O  0.16850262  0.29408711  0.81349578    -0.79500
O55         O  0.14026834  0.28122884  0.70273858    -1.01600
C56         C  0.23399814  0.21810745  0.78475656     1.21600
O57         O  0.24329014  0.30411261  0.76881619    -1.36500
Mn58       Mn  0.23656167  0.32563838  0.71699951     1.82100
O59         O  0.20412418  0.23130539  0.78914100    -0.78600
O60         O  0.20849842  0.19331540  0.70988291    -0.88000
C61         C  0.30028126  0.28389390  0.69712879     1.12700
C62         C  0.18132727  0.19210959  0.69082538     1.07400
O63         O  0.26179056  0.37576541  0.72881985    -0.79500
O64         O  0.21342402  0.27354067  0.71148551    -1.33200
O65         O  0.23545755  0.37466889  0.77607923    -0.98700
C66         C  0.27022488  0.27684827  0.84889241     1.06100
Mn67       Mn  0.24815486  0.23118874  0.71164277     1.48600
O68         O  0.24644379  0.29987217  0.84775897    -0.87900
Mn69       Mn  0.18510560  0.37534422  0.77245306     1.49600
O70         O  0.14577499  0.38542041  0.69547291    -0.91800
C71         C  0.12610612  0.26201751  0.72371489     1.19300
C72         C  0.16296704  0.41194966  0.70533865     1.11300
Mn73       Mn  0.19177934  0.28104618  0.76330341     1.81000
O74         O  0.28653046  0.26488884  0.71841810    -0.96900
Mn75       Mn  0.14325720  0.33205289  0.70296559     1.49300
C76         C  0.10583974  0.35835263  0.76651175     1.07900
Mn77       Mn  0.28673280  0.27111901  0.76922928     1.49900
C78         C  0.32308708  0.33490151  0.79420237     1.10800
O79         O  0.19222248  0.34339755  0.81147679    -1.02700
O80         O  0.25270551  0.22944200  0.65962700    -0.92400
C81         C  0.17213561  0.32431699  0.82659689     1.22100
O82         O  0.25220656  0.23260720  0.76293822    -1.03100
O83         O  0.21632713  0.26577055  0.63251584    -0.90500
O84         O  0.32295613  0.31158610  0.77085039    -0.90100
O85         O  0.18290891  0.41153304  0.73181725    -0.90200
Mn86       Mn  0.17748808  0.27148304  0.66989201     1.47900
O87         O  0.28635156  0.31356574  0.69334870    -0.78600
C88         C  0.25749106  0.38866478  0.75872136     1.15100
O89         O  0.14168592  0.25769250  0.75240014    -0.77400
O90         O  0.22461844  0.34821513  0.66656186    -0.77000
Mn91       Mn  0.24290785  0.33906828  0.81053474     1.51100
O92         O  0.28799339  0.26818409  0.82268967    -0.89300
O93         O  0.17599833  0.32223844  0.66584510    -0.96900
O94         O  0.29631831  0.34320951  0.81114687    -0.91900
C95         C  0.19598350  0.34201524  0.65115950     1.12900
C96         C  0.09723004  0.02270210  0.33373094     0.79900
N97         N  0.11043715  0.05271128  0.32084404    -0.78400
C98         C  0.10751190  0.08304908  0.33837694     0.82300
N99         N  0.09130154  0.08342764  0.36960163    -0.78400
C100        C  0.07770100  0.05349480  0.38261335     0.82400
N101        N  0.08054945  0.02343614  0.36455049    -0.80100
C102        C  0.29790055  0.02897980  0.14716325     0.79900
N103        N  0.28365706  0.06076622  0.15459995    -0.78400
C104        C  0.29918267  0.09126936  0.14439893     0.82300
N105        N  0.33011975  0.08948088  0.12664097    -0.78400
C106        C  0.34484550  0.05788978  0.11830031     0.82400
N107        N  0.32852457  0.02785056  0.12905387    -0.80100
O108        O  0.26161516  0.82067370  0.14175811    -0.88500
C109        C  0.17580483  0.69714952  0.27342239     1.11500
O110        O  0.25706582  0.81322783  0.22100086    -1.36300
O111        O  0.15060192  0.73121916  0.20854097    -0.90000
O112        O  0.29235016  0.86201007  0.16909522    -0.90700
O113        O  0.21330049  0.88407115  0.20557302    -0.79500
O114        O  0.20892995  0.77142312  0.17549947    -1.01600
C115        C  0.13880653  0.84784730  0.26751126     1.21600
O116        O  0.22566797  0.83781472  0.27926220    -1.36500
Mn117      Mn  0.25062287  0.78779568  0.27154065     1.82100
O118        O  0.15253778  0.85363507  0.23831214    -0.78600
O119        O  0.12395734  0.77639302  0.23253174    -0.88000
C120        C  0.20671144  0.75971089  0.33186863     1.12700
C121        C  0.12518393  0.75204507  0.21021325     1.07400
O122        O  0.30064178  0.80082611  0.29520771    -0.79500
O123        O  0.20019347  0.77920801  0.24744071    -1.33200
O124        O  0.29887351  0.85106839  0.27256361    -0.98700
C125        C  0.19247117  0.91436038  0.30863437     1.06100
Mn126      Mn  0.15507390  0.77582269  0.27706743     1.48600
O127        O  0.21912062  0.91696527  0.28965005    -0.87900
Mn128      Mn  0.29611675  0.85280466  0.22206683     1.49600
O129        O  0.31319477  0.77875829  0.17942319    -0.91800
C130        C  0.18564052  0.78932463  0.16244724     1.19300
C131        C  0.33868713  0.79195276  0.19538467     1.11300
Mn132      Mn  0.20398257  0.83208302  0.22678523     1.81000
O133        O  0.18539133  0.78090726  0.31992775    -0.96900
Mn134      Mn  0.26059020  0.77967599  0.17795686     1.49300
C135        C  0.27772240  0.84985951  0.14205424     1.07900
Mn136      Mn  0.18986439  0.83384580  0.32038977     1.49900
C137        C  0.25498984  0.85594130  0.36147742     1.10800
O138        O  0.26094169  0.88746964  0.23301127    -1.02700
O139        O  0.15400497  0.72160470  0.27699186    -0.92400
C140        C  0.24065658  0.90138133  0.21280732     1.22100
O141        O  0.15385319  0.82639529  0.28514856    -1.03100
O142        O  0.20280448  0.70009765  0.25471809    -0.90500
O143        O  0.22848868  0.83608493  0.35863472    -0.90100
O144        O  0.33688625  0.81794512  0.21550241    -0.90200
Mn145      Mn  0.20371991  0.73628637  0.21387154     1.47900
O146        O  0.23754104  0.76047436  0.31974925    -0.78600
C147        C  0.31479416  0.83051340  0.29086397     1.15100
O148        O  0.18037506  0.81902906  0.17629656    -0.77400
O149        O  0.27700514  0.73922530  0.25944431    -0.77000
Mn150      Mn  0.25951566  0.88143761  0.28347867     1.51100
O151        O  0.18276019  0.88632447  0.32269094    -0.89300
O152        O  0.25457678  0.73960580  0.20978050    -0.96900
O153        O  0.26562939  0.87546340  0.33699215    -0.91900
C154        C  0.27501075  0.72572434  0.22962211     1.12900
C155        C  0.96123684  0.20292583  0.34092953     0.79900
N156        N  0.96286144  0.18506930  0.37099995    -0.78400
C157        C  0.99293134  0.17206873  0.38364712     0.82300
N158        N  0.02280255  0.17645118  0.36497118    -0.78400
C159        C  0.02147114  0.19357044  0.33354764     0.82400
N160        N  0.99064853  0.20687056  0.32207146    -0.80100
C161        C  0.92289446  0.37124525  0.12351357     0.79900
N162        N  0.92430545  0.40305331  0.10725534    -0.78400
C163        C  0.95566192  0.41868925  0.10111503     0.82300
N164        N  0.98513357  0.40301419  0.11253633    -0.78400
C165        C  0.98407435  0.37190133  0.12937159     0.82400
N166        N  0.95285575  0.35629791  0.13501995    -0.80100
O167        O  0.80652209  0.26289888  0.32142050    -0.88500
C168        C  0.61352316  0.24631529  0.27936832     1.11500
O169        O  0.75271186  0.30206909  0.27926626    -1.36300
O170        O  0.69096233  0.19086798  0.24676809    -0.90000
O171        O  0.83217888  0.29822766  0.28336356    -0.90700
O172        O  0.79513498  0.29063759  0.20506395    -0.79500
O173        O  0.74574764  0.22826347  0.28925496    -1.01600
C174        C  0.70594085  0.25885232  0.16569904     1.21600
O175        O  0.72414884  0.33119222  0.22074899    -1.36500
Mn176      Mn  0.70144238  0.32397163  0.27155288     1.82100
O177        O  0.73550069  0.25545722  0.17934781    -0.78600
O178        O  0.65481306  0.21720219  0.20984537    -0.88000
C179        C  0.63812626  0.34524942  0.23093123     1.12700
C180        C  0.67071559  0.19027927  0.22053018     1.07400
O181        O  0.71221054  0.37343602  0.29458546    -0.79500
O182        O  0.69462169  0.27201436  0.25017418    -1.33200
O183        O  0.76199715  0.37546748  0.27151643    -0.98700
C184        C  0.75550023  0.35498351  0.14030513     1.06100
Mn185      Mn  0.65271264  0.27077847  0.21504831     1.48600
O186        O  0.76529165  0.37256500  0.16661481    -0.87900
Mn187      Mn  0.79492550  0.33758652  0.27982716     1.49600
O188        O  0.75499278  0.30712199  0.35842401    -0.91800
C189        C  0.76697883  0.21629165  0.26907099     1.19300
C190        C  0.77653591  0.33232898  0.35993750     1.11300
Mn191      Mn  0.74600979  0.27955260  0.22831337     1.81000
O192        O  0.64974968  0.32362352  0.21007342    -0.96900
Mn193      Mn  0.75257700  0.26716994  0.32153550     1.49300
C194        C  0.83292234  0.27275677  0.30438366     1.07900
Mn195      Mn  0.69030893  0.33130672  0.17766812     1.49900
C196        C  0.69596073  0.41206389  0.19349795     1.10800
O197        O  0.79689669  0.34032583  0.22885546    -1.02700
O198        O  0.61441786  0.26644267  0.25318054    -0.92400
C199        C  0.80937728  0.32020405  0.20784036     1.22100
O200        O  0.68687010  0.28008768  0.17904266    -1.03100
O201        O  0.64027049  0.23011510  0.29038010    -0.90500
O202        O  0.68568496  0.38571071  0.17605074    -0.90100
O203        O  0.79380949  0.34277306  0.33389751    -0.90200
Mn204      Mn  0.69437596  0.22958138  0.28541188     1.47900
O205        O  0.65265732  0.34761891  0.26012399    -0.78600
C206        C  0.74146514  0.38813672  0.29193441     1.15100
O207        O  0.76935842  0.23066349  0.23982201    -0.77400
O208        O  0.67697657  0.31304516  0.32002140    -0.77000
Mn209      Mn  0.75951039  0.37341270  0.22048432     1.51100
O210        O  0.73053615  0.33320247  0.14163706    -0.89300
O211        O  0.70153665  0.26383871  0.32202061    -0.96900
O212        O  0.72015129  0.41036045  0.21604574    -0.91900
C213        C  0.67999717  0.28359764  0.33425911     1.12900
C214        C  0.64639037  0.19130385  0.98365859     0.79900
N215        N  0.66173601  0.20014334  0.01421578    -0.78400
C216        C  0.64713344  0.19039865  0.04473246     0.82300
N217        N  0.61644427  0.17216400  0.04465166    -0.78400
C218        C  0.60112791  0.16317293  0.01400692     0.82400
N219        N  0.61608101  0.17316810  0.98396418    -0.80100
C220        C  0.81750416  0.39576394  0.00925731     0.79900
N221        N  0.83615556  0.42566050  0.00759003    -0.78400
C222        C  0.84757172  0.43905057  0.97736043     0.82300
N223        N  0.84016314  0.42155856  0.94719846    -0.78400
C224        C  0.82195764  0.39046164  0.94834710     0.82400
N225        N  0.81066739  0.37807965  0.97943353    -0.80100
C226        C  0.93366801  0.19850451  0.67006768     0.79900
N227        N  0.93536927  0.18074556  0.63913721    -0.78400
C228        C  0.96679112  0.17188089  0.62482553     0.82300
N229        N  0.99665039  0.18213399  0.64140192    -0.78400
C230        C  0.99559286  0.20035008  0.67183104     0.82400
N231        N  0.96405609  0.20845770  0.68588982    -0.80100
C232        C  0.99964989  0.39047129  0.86149001     0.79900
N233        N  0.00139524  0.42059776  0.87967919    -0.78400
C234        C  0.97201930  0.43586554  0.89103161     0.82300
N235        N  0.94072407  0.42088088  0.88428016    -0.78400
C236        C  0.93874462  0.39026777  0.86661830     0.82400
N237        N  0.96841169  0.37540243  0.85515746    -0.80100
O238        O  0.79564645  0.37062458  0.78786829    -0.88500
C239        C  0.60613365  0.32307835  0.80152459     1.11500
O240        O  0.74307841  0.32815666  0.74740267    -1.36300
O241        O  0.68465272  0.29136840  0.85312701    -0.90000
O242        O  0.82261444  0.33022559  0.75654220    -0.90700
O243        O  0.78746091  0.25163411  0.75524783    -0.79500
O244        O  0.73546732  0.33500980  0.81710994    -1.01600
C245        C  0.69711415  0.20777480  0.78355111     1.21600
O246        O  0.71473464  0.27129690  0.71615292    -1.36500
Mn247      Mn  0.69123857  0.32189509  0.72426185     1.82100
O248        O  0.72593472  0.22325450  0.78942529    -0.78600
O249        O  0.64892551  0.25212748  0.82913888    -0.88000
C250        C  0.62616060  0.27947558  0.70509667     1.12700
C251        C  0.66631947  0.26389988  0.85486991     1.07400
O252        O  0.70389760  0.34876717  0.67560079    -0.79500
O253        O  0.68551141  0.29690014  0.77472137    -1.33200
O254        O  0.75300792  0.32518275  0.67847910    -0.98700
C255        C  0.74801932  0.19675764  0.68667681     1.06100
Mn256      Mn  0.64484785  0.25953109  0.77488471     1.48600
O257        O  0.75228633  0.22276414  0.66716443    -0.87900
Mn258      Mn  0.78681700  0.32960980  0.71528881     1.49600
O259        O  0.74598319  0.40848169  0.74387153    -0.91800
C260        C  0.75716323  0.31701826  0.83131471     1.19300
C261        C  0.77044758  0.40971317  0.72185995     1.11300
Mn262      Mn  0.73733790  0.27529848  0.76794206     1.81000
O263        O  0.64163900  0.25927745  0.72389818    -0.96900
Mn264      Mn  0.74238364  0.37014472  0.78221060     1.49300
C265        C  0.82222521  0.35251026  0.78098799     1.07900
Mn266      Mn  0.68069736  0.22868275  0.71251664     1.49900
C267        C  0.68448839  0.25635043  0.63407845     1.10800
O268        O  0.78807769  0.27874952  0.70787645    -1.02700
O269        O  0.60681935  0.29736773  0.78091825    -0.92400
C270        C  0.80200426  0.25682505  0.72627087     1.22100
O271        O  0.67768376  0.22265314  0.76344465    -1.03100
O272        O  0.63220958  0.33476959  0.81800579    -0.90500
O273        O  0.67505022  0.23533560  0.65797597    -0.90100
O274        O  0.78808929  0.38328735  0.71332751    -0.90200
Mn275      Mn  0.68535332  0.33136757  0.81725314     1.47900
O276        O  0.64021179  0.30941428  0.70118515    -0.78600
C277        C  0.73481235  0.34666474  0.66421579     1.15100
O278        O  0.76173121  0.28695878  0.81817016    -0.77400
O279        O  0.66649754  0.37141607  0.73718762    -0.77000
Mn280      Mn  0.74954870  0.27523553  0.67421903     1.51100
O281        O  0.72296635  0.19471548  0.70782317    -0.89300
O282        O  0.69151484  0.37058391  0.78565214    -0.96900
O283        O  0.71003439  0.27713676  0.63744089    -0.91900
C284        C  0.67045364  0.38494556  0.76687210     1.12900
C285        C  0.12091462  0.71418575  0.98726799     0.79900
N286        N  0.10441550  0.68280137  0.98828934    -0.78400
C287        C  0.09299420  0.66859879  0.01830069     0.82300
N288        N  0.09827282  0.68661301  0.04859595    -0.78400
C289        C  0.11385568  0.71909954  0.04793814     0.82400
N290        N  0.12557453  0.73210327  0.01730655    -0.80100
C291        C  0.29368315  0.92566485  0.01338156     0.79900
N292        N  0.27791224  0.91624571  0.98311844    -0.78400
C293        C  0.29217137  0.92523887  0.95208705     0.82300
N294        N  0.32344403  0.94249859  0.95142690    -0.78400
C295        C  0.33915528  0.95218013  0.98162131     0.82400
N296        N  0.32404734  0.94370154  0.01197005    -0.80100
C297        C  0.10081105  0.00243751  0.67498783     0.79900
N298        N  0.08335442  0.00237369  0.64400107    -0.78400
C299        C  0.07455063  0.03331778  0.62893318     0.82300
N300        N  0.08445517  0.06351966  0.64418716    -0.78400
C301        C  0.10302209  0.06405485  0.67410992     0.82400
N302        N  0.11134978  0.03323777  0.68920939    -0.80100
C303        C  0.31518694  0.04174517  0.84453978     0.79900
N304        N  0.34534131  0.04388962  0.86248197    -0.78400
C305        C  0.35882904  0.07461106  0.87313014     0.82300
N306        N  0.34119285  0.10469164  0.86557355    -0.78400
C307        C  0.30947615  0.10282541  0.84874326     0.82400
N308        N  0.29709045  0.07135434  0.83802469    -0.80100
O309        O  0.33333377  0.83633465  0.74570000    -0.88500
C310        C  0.19458120  0.74761096  0.86024044     1.11500
O311        O  0.25322918  0.83090351  0.74937724    -1.36300
O312        O  0.26478065  0.71857545  0.82024536    -0.90000
O313        O  0.30782463  0.87193090  0.70768605    -0.90700
O314        O  0.26888481  0.78904750  0.67893956    -0.79500
O315        O  0.29781547  0.78038035  0.78774045    -1.01600
C316        C  0.20422849  0.71613005  0.70854971     1.21600
O317        O  0.19395896  0.80156761  0.72039216    -1.36500
Mn318      Mn  0.20172606  0.82441951  0.77132767     1.82100
O319        O  0.23385532  0.72958843  0.70480772    -0.78600
O320        O  0.22617405  0.69225865  0.78539034    -0.88000
C321        C  0.13843023  0.78477698  0.79153765     1.12700
C322        C  0.25236582  0.69146101  0.80582771     1.07400
O323        O  0.17813210  0.87364281  0.75960327    -0.79500
O324        O  0.22377227  0.77270987  0.77920873    -1.33200
O325        O  0.20180524  0.87585559  0.70945231    -0.98700
C326        C  0.16890404  0.76926616  0.64026880     1.06100
Mn327      Mn  0.18796111  0.73104909  0.78007560     1.48600
O328        O  0.19077555  0.79418836  0.64145552    -0.87900
Mn329      Mn  0.25434307  0.87277751  0.71381395     1.49600
O330        O  0.29355617  0.88500435  0.79028234    -0.91800
C331        C  0.31003427  0.75969034  0.76710632     1.19300
C332        C  0.27784236  0.91168603  0.77883755     1.11300
Mn333      Mn  0.24535013  0.77901963  0.72786381     1.81000
O334        O  0.15162562  0.76501602  0.77092913    -0.96900
Mn335      Mn  0.29542398  0.83152427  0.78459085     1.49300
C336        C  0.33444930  0.85657950  0.71960644     1.07900
Mn337      Mn  0.15175434  0.76658963  0.72032543     1.49900
C338        C  0.11305171  0.83111689  0.69372246     1.10800
O339        O  0.24463683  0.83809198  0.67815151    -1.02700
O340        O  0.18235628  0.73253854  0.83349376    -0.92400
C341        C  0.26569305  0.81860454  0.66520886     1.22100
O342        O  0.18521156  0.72976406  0.72947931    -1.03100
O343        O  0.22092183  0.76799417  0.85924371    -0.90500
O344        O  0.11412039  0.80599572  0.71535743    -0.90100
O345        O  0.25888866  0.91113271  0.75183835    -0.90200
Mn346      Mn  0.25975243  0.77230579  0.82084298     1.47900
O347        O  0.15258594  0.81422630  0.79496274    -0.78600
C348        C  0.18123595  0.88851519  0.73061243     1.15100
O349        O  0.29411591  0.75527387  0.73885642    -0.77400
O350        O  0.21309232  0.84815127  0.82018504    -0.77000
Mn351      Mn  0.19354844  0.83500832  0.67730991     1.51100
O352        O  0.15166227  0.75970614  0.66667093    -0.89300
O353        O  0.26196842  0.82325099  0.82146720    -0.96900
O354        O  0.13960404  0.84068353  0.67657506    -0.91900
C355        C  0.24230580  0.84418205  0.83462428     1.12900
C356        C  0.94828362  0.71257812  0.13560052     0.79900
N357        N  0.94590982  0.68235503  0.11753770    -0.78400
C358        C  0.97483140  0.66753563  0.10448457     0.82300
N359        N  0.00615317  0.68326283  0.10906656    -0.78400
C360        C  0.00854870  0.71391902  0.12660791     0.82400
N361        N  0.97946527  0.72823657  0.13986505    -0.80100
C362        C  0.94786603  0.90846141  0.32060550     0.79900
N363        N  0.94654435  0.92527280  0.35180811    -0.78400
C364        C  0.97630422  0.93484396  0.36902120     0.82300
N365        N  0.00788507  0.92654424  0.35474950    -0.78400
C366        C  0.00973690  0.90994854  0.32322181     0.82400
N367        N  0.97950064  0.90076433  0.30670552    -0.80100
C368        C  0.84889802  0.03921748  0.31650071     0.79900
N369        N  0.86605098  0.03976111  0.34725541    -0.78400
C370        C  0.87612699  0.06983098  0.36251517     0.82300
N371        N  0.86917190  0.10065140  0.34643501    -0.78400
C372        C  0.85284286  0.10084072  0.31474744     0.82400
N373        N  0.84208229  0.07004864  0.30041015    -0.80100
C374        C  0.63905290  0.00412964  0.13458346     0.79900
N375        N  0.65169097  0.03486694  0.14729801    -0.78400
C376        C  0.63310104  0.06477833  0.14429421     0.82300
N377        N  0.60181896  0.06360458  0.12810968    -0.78400
C378        C  0.58811164  0.03364366  0.11549739     0.82400
N379        N  0.60651259  0.00326803  0.11930516    -0.80100
O380        O  0.64583442  0.77065312  0.17621045    -0.88500
C381        C  0.83694471  0.74852732  0.22352077     1.11500
O382        O  0.70015025  0.80655647  0.22194896    -1.36300
O383        O  0.75918957  0.69602515  0.25413984    -0.90000
O384        O  0.62154052  0.79837788  0.22068205    -0.90700
O385        O  0.65660947  0.79492272  0.29664493    -0.79500
O386        O  0.70628247  0.73543359  0.21142195    -1.01600
C387        C  0.74510483  0.76484254  0.33962131     1.21600
O388        O  0.73020812  0.83467818  0.28040815    -1.36500
Mn389      Mn  0.75205080  0.82848249  0.22878261     1.82100
O390        O  0.71705135  0.75956876  0.32294481    -0.78600
O391        O  0.79462475  0.71985512  0.29388197    -0.88000
C392        C  0.81864471  0.84395452  0.26906418     1.12700
C393        C  0.77777556  0.69406885  0.28141201     1.07400
O394        O  0.73984164  0.87874513  0.20391919    -0.79500
O395        O  0.75802949  0.77628108  0.25135541    -1.33200
O396        O  0.69138548  0.87830548  0.22988193    -0.98700
C397        C  0.70204594  0.86186852  0.35967486     1.06100
Mn398      Mn  0.79918662  0.77368876  0.28811407     1.48600
O399        O  0.69188688  0.87935568  0.33394609    -0.87900
Mn400      Mn  0.65695283  0.83968944  0.22312946     1.49600
O401        O  0.69750459  0.81630750  0.14301224    -0.91800
C402        C  0.68491203  0.72071473  0.23009367     1.19300
C403        C  0.67297266  0.83855355  0.14345370     1.11300
Mn404      Mn  0.70638324  0.78315379  0.27302104     1.81000
O405        O  0.80403789  0.82452372  0.28959619    -0.96900
Mn406      Mn  0.69963045  0.77452431  0.17784431     1.49300
C407        C  0.62021832  0.77642018  0.19595687     1.07900
Mn408      Mn  0.76634129  0.83479700  0.32199941     1.49900
C409        C  0.76464215  0.91471753  0.30185289     1.10800
O410        O  0.65721656  0.84492045  0.27407817    -1.02700
O411        O  0.83666819  0.76827259  0.24979268    -0.92400
C412        C  0.64318890  0.82496249  0.29429673     1.22100
O413        O  0.76665084  0.78381029  0.32590824    -1.03100
O414        O  0.81053485  0.73300392  0.21156855    -0.90500
O415        O  0.77453493  0.88806184  0.31860882    -0.90100
O416        O  0.65495909  0.84453058  0.17007977    -0.90200
Mn417      Mn  0.75788777  0.73448973  0.21566262     1.47900
O418        O  0.80268307  0.85043742  0.24090367    -0.78600
C419        C  0.70967023  0.89174034  0.20745830     1.15100
O420        O  0.68114563  0.73348894  0.26011249    -0.77400
O421        O  0.77586990  0.81708631  0.17872506    -0.77000
Mn422      Mn  0.69630501  0.87797106  0.28145815     1.51100
O423        O  0.72710048  0.84054347  0.35880885    -0.89300
O424        O  0.75074347  0.76843229  0.17786383    -0.96900
O425        O  0.73700320  0.91478189  0.28342785    -0.91900
C426        C  0.77191968  0.78763253  0.16425676     1.12900
C427        C  0.63527247  0.92550718  0.03010762     0.79900
N428        N  0.64902157  0.91264461  0.00074344    -0.78400
C429        C  0.63245165  0.91601302  0.97011713     0.82300
N430        N  0.60171087  0.93315458  0.96856987    -0.78400
C431        C  0.58720923  0.94589121  0.99775638     0.82400
N432        N  0.60370818  0.94159451  0.02867566    -0.80100
C433        C  0.82557092  0.72661830  0.97340846     0.79900
N434        N  0.81851767  0.74165408  0.00469046    -0.78400
C435        C  0.82859286  0.72622009  0.03513085     0.82300
N436        N  0.84631836  0.69503061  0.03363480    -0.78400
C437        C  0.85413553  0.67967108  0.00246620     0.82400
N438        N  0.84318379  0.69561614  0.97265145    -0.80100
C439        C  0.83775669  0.08452301  0.65627252     0.79900
N440        N  0.82396675  0.05480796  0.66904588    -0.78400
C441        C  0.82648697  0.02431556  0.65177570     0.82300
N442        N  0.84335656  0.02337526  0.62098632    -0.78400
C443        C  0.85747159  0.05304089  0.60801343     0.82400
N444        N  0.85455456  0.08336470  0.62563461    -0.80100
C445        C  0.64675157  0.07706476  0.85059226     0.79900
N446        N  0.61568600  0.07836852  0.86781284    -0.78400
C447        C  0.59909472  0.04878300  0.87877653     0.82300
N448        N  0.61378927  0.01704760  0.87132655    -0.78400
C449        C  0.64499199  0.01487390  0.85411480     0.82400
N450        N  0.66118771  0.04512676  0.84395118    -0.80100
C451        C  0.98281703  0.89753689  0.65289736     0.79900
N452        N  0.95313788  0.89153092  0.67072998    -0.78400
C453        C  0.92176264  0.90325141  0.65902563     0.82300
N454        N  0.92000939  0.92088394  0.62784607    -0.78400
C455        C  0.95018046  0.92747052  0.60989573     0.82400
N456        N  0.98079047  0.91564111  0.62289867    -0.80100
C457        C  0.95839894  0.72729735  0.86511650     0.79900
N458        N  0.98874390  0.74274696  0.85570126    -0.78400
C459        C  0.01984226  0.72866232  0.86518522     0.82300
N460        N  0.02065910  0.69781949  0.88316348    -0.78400
C461        C  0.99022605  0.68252358  0.89309838     0.82400
N462        N  0.95973075  0.69748628  0.88395893    -0.80100
N463        N  0.95331642  0.97947664  0.44761394    -0.06500
N464        N  0.94372516  0.96515047  0.41763424    -0.58600
N465        N  0.97620326  0.97149245  0.53322833    -0.06100
N466        N  0.98374699  0.95414701  0.56182097    -0.60700
N467        N  0.94226273  0.97451107  0.52965912    -0.05700
N468        N  0.92605574  0.95927518  0.55618477    -0.58500
N469        N  0.98715184  0.97651854  0.45199613    -0.05400
N470        N  0.00121590  0.96024983  0.42505237    -0.61100
C471        C  0.97385283  0.95311757  0.40362144     0.95700
C472        C  0.95247295  0.94644849  0.57606282     0.95500
N473        N  0.03988167  0.05873427  0.54813560    -0.06600
N474        N  0.05314868  0.06703025  0.57861033    -0.59100
N475        N  0.04571507  0.03152483  0.46472389    -0.04800
N476        N  0.05620901  0.02158839  0.43382134    -0.60400
N477        N  0.04905896  0.06569292  0.46806823    -0.06700
N478        N  0.06200873  0.07939529  0.43946408    -0.59400
N479        N  0.03725759  0.02449380  0.54511411    -0.04400
N480        N  0.04881653  0.00893807  0.57365090    -0.60500
Mn481      Mn  0.01274957  0.99997109  0.49890828     1.18400
C482        C  0.05854973  0.03590576  0.59428115     0.97800
C483        C  0.06616638  0.05161305  0.41847290     0.98500
N484        N  0.89330880  0.03866385  0.52599838    -0.06700
N485        N  0.87778520  0.02558731  0.55356077    -0.63000
N486        N  0.90691037  0.07935360  0.44895228    -0.05500
N487        N  0.89778369  0.09463767  0.41939702    -0.63700
N488        N  0.90409214  0.04509574  0.44616894    -0.06200
N489        N  0.89312889  0.03656442  0.41485558    -0.63300
N490        N  0.89653156  0.07285858  0.52893342    -0.05100
N491        N  0.88336474  0.08358519  0.55844415    -0.63900
Mn492      Mn  0.92181082  0.00859821  0.48701391     1.10700
C493        C  0.87182994  0.05394829  0.57335297     0.99000
C494        C  0.88933913  0.06751509  0.39839585     0.99100
N495        N  0.00079582  0.12925549  0.46565543    -0.06200
N496        N  0.01702510  0.14305708  0.43845030    -0.61600
N497        N  0.95571795  0.12752194  0.54301989    -0.05500
N498        N  0.94170557  0.14464552  0.56949926    -0.58300
N499        N  0.98956733  0.12447771  0.54755986    -0.06800
N500        N  0.99916252  0.13965132  0.57714578    -0.61100
N501        N  0.96691414  0.13232386  0.46201642    -0.05800
N502        N  0.95936574  0.14833441  0.43273245    -0.58300
Mn503      Mn  0.02122913  0.09533912  0.50794286     1.20200
Mn504      Mn  0.93036374  0.10403400  0.49572296     1.10100
Cl505      Cl  0.97150531  0.05195850  0.49763344    -0.86300
C506        C  0.99062117  0.15499617  0.41813815     0.96000
C507        C  0.96906555  0.15222456  0.59083147     0.95800
N508        N  0.94709587  0.50342727  0.06397097    -0.06500
N509        N  0.93179052  0.47456950  0.07551506    -0.58600
N510        N  0.98751348  0.58198926  0.07486842    -0.06100
N511        N  0.00093546  0.61121450  0.08731492    -0.60700
N512        N  0.95334315  0.58465544  0.07231803    -0.05700
N513        N  0.94305099  0.61557259  0.08318044    -0.58500
N514        N  0.98127712  0.50067406  0.06663633    -0.05400
N515        N  0.98966499  0.47003102  0.08002778    -0.61100
C516        C  0.95868438  0.45395327  0.08543847     0.95700
C517        C  0.97296492  0.63172765  0.09219728     0.95500
N518        N  0.05365645  0.58839413  0.99264786    -0.06600
N519        N  0.06946846  0.61804172  0.98488565    -0.59100
N520        N  0.04666949  0.50185527  0.01630532    -0.04800
N521        N  0.06188034  0.47219729  0.02599313    -0.60400
N522        N  0.04945456  0.50600551  0.98260166    -0.06700
N523        N  0.06639383  0.47914207  0.96877175    -0.59400
N524        N  0.05087828  0.58507040  0.02642653    -0.04400
N525        N  0.06474848  0.61283911  0.04228157    -0.60500
Mn526      Mn  0.01742146  0.54187531  0.04747452     1.18400
C527        C  0.07647225  0.63319548  0.01588484     0.97800
C528        C  0.07419871  0.45801747  0.99609142     0.98500
N529        N  0.89824861  0.59727345  0.01405727    -0.06700
N530        N  0.88131534  0.62418276  0.02782920    -0.63000
N531        N  0.89586809  0.51890634  0.96987787    -0.05500
N532        N  0.87987025  0.49254769  0.95367882    -0.63700
N533        N  0.89330339  0.51527679  0.00361391    -0.06200
N534        N  0.87551377  0.48676719  0.01110293    -0.63300
N535        N  0.90112837  0.60143829  0.98035677    -0.05100
N536        N  0.88600410  0.63110598  0.97061146    -0.63900
Mn537      Mn  0.92205597  0.54997462  0.03964961     1.10700
C538        C  0.87363643  0.64531882  0.00045997     0.99000
C539        C  0.86711338  0.47269830  0.97992033     0.99100
N540        N  0.99384661  0.51804848  0.92456069    -0.06200
N541        N  0.00397613  0.48720307  0.91339571    -0.61600
N542        N  0.96620222  0.60174236  0.92995394    -0.05500
N543        N  0.95753144  0.63197135  0.91611265    -0.58300
N544        N  0.00038649  0.59908760  0.93217162    -0.06800
N545        N  0.01550525  0.62767716  0.91972289    -0.61100
N546        N  0.95968426  0.52091010  0.92196472    -0.05800
N547        N  0.94609436  0.49193932  0.90913554    -0.58300
Mn548      Mn  0.02537661  0.55297102  0.95687195     1.20200
Mn549      Mn  0.93000407  0.56123392  0.94919354     1.10100
Cl550      Cl  0.97371662  0.55145536  0.99831101    -0.86300
C551        C  0.97396878  0.47135771  0.90407084     0.96000
C552        C  0.98831827  0.64794293  0.90988984     0.95800
N553        N  0.44184176  0.13308631  0.98384168    -0.06500
N554        N  0.41533568  0.15113509  0.97125905    -0.58600
N555        N  0.51922212  0.12138694  0.02388894    -0.06100
N556        N  0.54741086  0.13482474  0.03891975    -0.60700
N557        N  0.52169669  0.12369738  0.98987258    -0.05700
N558        N  0.55136240  0.13858927  0.98122505    -0.58500
N559        N  0.43927067  0.13013789  0.01779872    -0.05400
N560        N  0.41121251  0.14615209  0.02888775    -0.61100
C561        C  0.39669585  0.15911079  0.99972671     0.95700
C562        C  0.56717038  0.14535306  0.01186925     0.95500
N563        N  0.50496778  0.02612440  0.07381055    -0.06600
N564        N  0.53249576  0.00991576  0.08736554    -0.59100
N565        N  0.42622568  0.07027304  0.07281592    -0.04800
N566        N  0.39961207  0.08383290  0.09022820    -0.60400
N567        N  0.42234363  0.03620390  0.07001723    -0.06700
N568        N  0.39315313  0.02605173  0.08561446    -0.59400
N569        N  0.50849610  0.06016242  0.07675034    -0.04400
N570        N  0.53817989  0.06779373  0.09246814    -0.60500
Mn571      Mn  0.47327962  0.09645940  0.04885393     1.18400
C572        C  0.55299128  0.03638974  0.09912272     0.97800
C573        C  0.37890540  0.05599845  0.09827973     0.98500
N574        N  0.52113728  0.07231217  0.92504107    -0.06700
N575        N  0.55081969  0.08183090  0.91002145    -0.63000
N576        N  0.43535257  0.04894646  0.91766468    -0.05500
N577        N  0.40685944  0.04117144  0.90007301    -0.63700
N578        N  0.43881053  0.08302107  0.92040642    -0.06200
N579        N  0.41233870  0.09915646  0.90477065    -0.63300
N580        N  0.51682595  0.03829770  0.92229572    -0.05100
N581        N  0.54351307  0.02411437  0.90559940    -0.63900
Mn582      Mn  0.48122708  0.10422618  0.95396996     1.10700
C583        C  0.56476880  0.05150227  0.89787708     0.99000
C584        C  0.39265497  0.07249385  0.89198914     0.99100
N585        N  0.42152083  0.98582642  0.00490773    -0.06200
N586        N  0.39097342  0.97302753  0.01377307    -0.61600
N587        N  0.50482689  0.97963295  0.97689418    -0.05500
N588        N  0.53534290  0.96803622  0.96653171    -0.58300
N589        N  0.50235229  0.97721913  0.01088351    -0.06800
N590        N  0.53130714  0.96412206  0.02411331    -0.61100
N591        N  0.42377887  0.98817140  0.97089351    -0.05800
N592        N  0.39455806  0.97680035  0.95607620    -0.58300
Mn593      Mn  0.46232744  0.00502009  0.04062953     1.20200
Mn594      Mn  0.46999552  0.01259971  0.94595820     1.10100
Cl595      Cl  0.47154771  0.05468847  0.99732772    -0.86300
C596        C  0.37438153  0.96752298  0.98328266     0.96000
C597        C  0.55148004  0.95861353  0.99619780     0.95800
O598        O  0.75295146  0.69210766  0.74278197    -0.88500
C599        C  0.66865987  0.82023138  0.86488569     1.11500
O600        O  0.75109473  0.76831162  0.75429434    -1.36300
O601        O  0.64036991  0.74970554  0.82310265    -0.90000
O602        O  0.79841928  0.71743828  0.71924556    -0.90700
O603        O  0.71235817  0.75177687  0.68040631    -0.79500
O604        O  0.70197931  0.72191037  0.79002677    -1.01600
C605        C  0.63494945  0.81519649  0.71249326     1.21600
O606        O  0.72122953  0.82621994  0.72680191    -1.36500
Mn607      Mn  0.74421772  0.81892596  0.77802717     1.82100
O608        O  0.64928927  0.78594933  0.70681273    -0.78600
O609        O  0.61358202  0.78818126  0.78901507    -0.88000
C610        C  0.70239927  0.88214571  0.79992153     1.12700
C611        C  0.61340986  0.76071282  0.80756762     1.07400
O612        O  0.79362672  0.84527326  0.76592679    -0.79500
O613        O  0.69323791  0.79428774  0.78415715    -1.33200
O614        O  0.79227332  0.82074084  0.71730055    -0.98700
C615        C  0.68934173  0.85390500  0.64845894     1.06100
Mn616      Mn  0.65065718  0.82839770  0.78652126     1.48600
O617        O  0.71383057  0.83145464  0.64777684    -0.87900
Mn618      Mn  0.79395020  0.77055256  0.72119743     1.49600
O619        O  0.80640569  0.72489443  0.79184583    -0.91800
C620        C  0.68127465  0.70754408  0.77066387     1.19300
C621        C  0.83089059  0.74658068  0.78668970     1.11300
Mn622      Mn  0.69952277  0.77384036  0.73139368     1.81000
O623        O  0.68314870  0.86769217  0.77915885    -0.96900
Mn624      Mn  0.75237892  0.72433567  0.78678954     1.49300
C625        C  0.77448679  0.69493018  0.71816581     1.07900
Mn626      Mn  0.68671803  0.86871791  0.72834969     1.49900
C627        C  0.74844384  0.90768485  0.70178086     1.10800
O628        O  0.76129832  0.77679123  0.68150418    -1.02700
O629        O  0.65234468  0.83167177  0.83883482    -0.92400
C630        C  0.74171578  0.75699369  0.66611305     1.22100
O631        O  0.64884012  0.83352625  0.73498132    -1.03100
O632        O  0.68919945  0.79432015  0.86416965    -0.90500
O633        O  0.72568431  0.90661655  0.72545675    -0.90100
O634        O  0.82866333  0.77023017  0.76358542    -0.90200
Mn635      Mn  0.69377853  0.75701275  0.82491825     1.47900
O636        O  0.73200316  0.86816974  0.80362015    -0.78600
C637        C  0.80685104  0.84142848  0.73611689     1.15100
O638        O  0.67644523  0.72257388  0.74172490    -0.77400
O639        O  0.76825901  0.80558839  0.82725166    -0.77000
Mn640      Mn  0.75501475  0.82773104  0.68418212     1.51100
O641        O  0.68085293  0.86992232  0.67569756    -0.89300
O642        O  0.74499003  0.75509300  0.82713392    -0.96900
O643        O  0.75810571  0.88098027  0.68523132    -0.91900
C644        C  0.76456976  0.77591512  0.84155350     1.12900
C645        C  0.33836120  0.87512350  0.54720608     0.79900
N646        N  0.35659454  0.90587594  0.54626113    -0.78400
C647        C  0.36445095  0.92070477  0.51514173     0.82300
N648        N  0.35294945  0.90535036  0.48558672    -0.78400
C649        C  0.33445402  0.87511541  0.48636560     0.82400
N650        N  0.32707906  0.86025120  0.51728119    -0.80100
C651        C  0.12697485  0.70535929  0.50984144     0.79900
N652        N  0.09586480  0.68889843  0.50788746    -0.78400
C653        C  0.08220481  0.67745893  0.47763424     0.82300
N654        N  0.10070288  0.68258146  0.44774886    -0.78400
C655        C  0.13270348  0.69917935  0.44904909     0.82400
N656        N  0.14530949  0.71037517  0.48025644    -0.80100
C657        C  0.80503286  0.40923837  0.48622659     0.79900
N658        N  0.78728411  0.40453677  0.51625686    -0.78400
C659        C  0.80024386  0.41707712  0.54685176     0.82300
N660        N  0.83242557  0.43314514  0.54734757    -0.78400
C661        C  0.85005104  0.43828123  0.51701126     0.82400
N662        N  0.83588398  0.42640266  0.48714996    -0.80100
C663        C  0.60592043  0.23142170  0.50955138     0.79900
N664        N  0.61089996  0.24684206  0.47830204    -0.78400
C665        C  0.59783788  0.23213797  0.44888261     0.82300
N666        N  0.58117010  0.20056033  0.45083238    -0.78400
C667        C  0.57588019  0.18504859  0.48220112     0.82400
N668        N  0.58862419  0.20053434  0.51123623    -0.80100
C669        C  0.60832154  0.89103670  0.46782451     0.79900
N670        N  0.59181454  0.92222467  0.46806912    -0.78400
C671        C  0.58290125  0.93737173  0.49831825     0.82300
N672        N  0.59064054  0.92118653  0.52864795    -0.78400
C673        C  0.60694333  0.88957751  0.52873602     0.82400
N674        N  0.61606856  0.87514069  0.49813573    -0.80100
C675        C  0.79219173  0.69918850  0.53265681     0.79900
N676        N  0.82332637  0.68178929  0.53110866    -0.78400
C677        C  0.83791457  0.67307812  0.49996626     0.82300
N678        N  0.82122306  0.68275054  0.47010507    -0.78400
C679        C  0.79039858  0.70049879  0.47091828     0.82400
N680        N  0.77639722  0.70904979  0.50233274    -0.80100
C681        C  0.43906227  0.41463846  0.84236762     0.79900
N682        N  0.43991942  0.43028664  0.87387469    -0.78400
C683        C  0.47087299  0.43788305  0.88909292     0.82300
N684        N  0.50092212  0.42915825  0.87327041    -0.78400
C685        C  0.50008156  0.41395222  0.84164018     0.82400
N686        N  0.46919422  0.40668079  0.82644218    -0.80100
C687        C  0.49311234  0.22739922  0.64544625     0.79900
N688        N  0.49428603  0.19657918  0.62747714    -0.78400
C689        C  0.46480176  0.17946309  0.61718197     0.82300
N690        N  0.43317867  0.19369620  0.62537121    -0.78400
C691        C  0.43113499  0.22484757  0.64304090     0.82400
N692        N  0.46131171  0.24130361  0.65297162    -0.80100
C693        C  0.44937245  0.87877625  0.34928652     0.79900
N694        N  0.48090295  0.86456866  0.34094784    -0.78400
C695        C  0.51148483  0.88046634  0.35079578     0.82300
N696        N  0.50988803  0.91106174  0.36947449    -0.78400
C697        C  0.47856402  0.92548516  0.37837355     0.82400
N698        N  0.44874674  0.90917271  0.36784389    -0.80100
C699        C  0.43790675  0.69538678  0.15699196     0.79900
N700        N  0.46831489  0.70402187  0.17222902    -0.78400
C701        C  0.49875415  0.69808018  0.15634461     0.82300
N702        N  0.49872378  0.68245519  0.12466675    -0.78400
C703        C  0.46824497  0.67221849  0.10979894     0.82400
N704        N  0.43774797  0.67963767  0.12555521    -0.80100
C705        C  0.78707490  0.50822010  0.37175066     0.79900
N706        N  0.77512156  0.53864336  0.35769962    -0.78400
C707        C  0.79172503  0.56935144  0.36448075     0.82300
N708        N  0.82046718  0.56906221  0.38489759    -0.78400
C709        C  0.83384997  0.53919150  0.39760554     0.82400
N710        N  0.81739780  0.50843213  0.39066695    -0.80100
C711        C  0.62361498  0.60192483  0.15874158     0.79900
N712        N  0.60675874  0.60188766  0.12726777    -0.78400
C713        C  0.59994199  0.57099802  0.11079886     0.82300
N714        N  0.61155662  0.54088115  0.12524230    -0.78400
C715        C  0.62892062  0.54093257  0.15597856     0.82400
N716        N  0.63478095  0.57147430  0.17256698    -0.80100
C717        C  0.48623120  0.68134344  0.82559952     0.79900
N718        N  0.45591676  0.69022275  0.80989132    -0.78400
C719        C  0.42469863  0.68005596  0.82309587     0.82300
N720        N  0.42375491  0.66225768  0.85380395    -0.78400
C721        C  0.45423970  0.65291642  0.86951902     0.82400
N722        N  0.48482773  0.66249446  0.85518591    -0.80100
C723        C  0.46111362  0.89068047  0.64606771     0.79900
N724        N  0.46208350  0.92170429  0.62923990    -0.78400
C725        C  0.49232939  0.93594069  0.61808342     0.82300
N726        N  0.52288881  0.91847132  0.62404631    -0.78400
C727        C  0.52215933  0.88629316  0.63995739     0.82400
N728        N  0.49132755  0.87320813  0.65146149    -0.80100
C729        C  0.80268462  0.58518505  0.62620949     0.79900
N730        N  0.78969947  0.55489255  0.63876613    -0.78400
C731        C  0.80678151  0.52441701  0.63452530     0.82300
N732        N  0.83821534  0.52449626  0.61842999    -0.78400
C733        C  0.85138863  0.55474188  0.60568263     0.82400
N734        N  0.83341835  0.58471952  0.60937300    -0.80100
C735        C  0.61942034  0.57766417  0.82745383     0.79900
N736        N  0.60212756  0.57857626  0.85846700    -0.78400
C737        C  0.59131345  0.54843955  0.87446855     0.82300
N738        N  0.59905733  0.51702398  0.85920785    -0.78400
C739        C  0.61642628  0.51547734  0.82817323     0.82400
N740        N  0.62621781  0.54603610  0.81261688    -0.80100
C741        C  0.32591445  0.49962259  0.83702664     0.79900
N742        N  0.31381183  0.53051358  0.82470136    -0.78400
C743        C  0.31815091  0.56046329  0.84277529     0.82300
N744        N  0.33520209  0.55933689  0.87356095    -0.78400
C745        C  0.34766102  0.52915157  0.88692727     0.82400
N746        N  0.34267558  0.49866446  0.86875175    -0.80100
C747        C  0.14286394  0.60186329  0.63154367     0.79900
N748        N  0.15721002  0.57062974  0.63997410    -0.78400
C749        C  0.14179561  0.54031993  0.63013498     0.82300
N750        N  0.11165645  0.54176931  0.61182941    -0.78400
C751        C  0.09652914  0.57249075  0.60355607     0.82400
N752        N  0.11184574  0.60289561  0.61396474    -0.80100
N753        N  0.01225234  0.48053228  0.48192452    -0.06500
N754        N  0.03877510  0.46283286  0.46862045    -0.58600
N755        N  0.93353330  0.47929910  0.52501161    -0.06100
N756        N  0.90577980  0.46599707  0.54083542    -0.60700
N757        N  0.93022254  0.47630785  0.49122621    -0.05700
N758        N  0.90040241  0.46084392  0.48341295    -0.58500
N759        N  0.01599718  0.48338252  0.51571907    -0.05400
N760        N  0.04507392  0.46754723  0.52599207    -0.61100
C761        C  0.05928085  0.45472627  0.49636295     0.95700
C762        C  0.88531855  0.45439368  0.51443233     0.95500
N763        N  0.93274180  0.57655910  0.57088171    -0.06600
N764        N  0.90215377  0.58663836  0.58242731    -0.59100
N765        N  0.01609390  0.54883102  0.56616843    -0.04800
N766        N  0.04604256  0.54000127  0.58035254    -0.60400
N767        N  0.01360500  0.58313039  0.56393820    -0.06700
N768        N  0.04208560  0.59819956  0.57677078    -0.59400
N769        N  0.93589909  0.54238560  0.57392627    -0.04400
N770        N  0.90755955  0.52875559  0.58772705    -0.60500
Mn771      Mn  0.97590198  0.51270897  0.54644488     1.18400
C772        C  0.88689196  0.55662410  0.59277769     0.97800
C773        C  0.06202719  0.57081952  0.58682246     0.98500
N774        N  0.91937352  0.52939455  0.43141985    -0.06700
N775        N  0.88984462  0.51417891  0.42144479    -0.63000
N776        N  0.99730203  0.57050530  0.42007246    -0.05500
N777        N  0.02541172  0.58432630  0.40594595    -0.63700
N778        N  0.00062003  0.53633299  0.42306105    -0.06200
N779        N  0.03109258  0.52644958  0.41100174    -0.63300
N780        N  0.91673414  0.56365035  0.42896928    -0.05100
N781        N  0.88559090  0.57227953  0.41738388    -0.63900
Mn782      Mn  0.96568290  0.50455360  0.45564017     1.10700
C783        C  0.86901884  0.54137357  0.41292184     0.99000
C784        C  0.04612004  0.55657736  0.40045136     0.99100
N785        N  0.00316610  0.63655685  0.50300491    -0.06200
N786        N  0.03247128  0.65295676  0.51083976    -0.61600
N787        N  0.91728137  0.62867829  0.47861364    -0.05500
N788        N  0.88733138  0.64283430  0.46850483    -0.58300
N789        N  0.92103986  0.63160660  0.51237276    -0.06800
N790        N  0.89361080  0.64768454  0.52586374    -0.61100
N791        N  0.99983594  0.63371798  0.46918616    -0.05800
N792        N  0.02715702  0.64803850  0.45338386    -0.58300
Mn793      Mn  0.96776699  0.60811366  0.53869210     1.20200
Mn794      Mn  0.95738211  0.59993078  0.44784959     1.10100
Cl795      Cl  0.96691418  0.55634339  0.49715145    -0.86300
C796        C  0.04731881  0.66017185  0.47984800     0.96000
C797        C  0.87260419  0.65471046  0.49821961     0.95800
N798        N  0.49691488  0.48461432  0.04850873    -0.06500
N799        N  0.51191842  0.47177499  0.07680691    -0.58600
N800        N  0.45683582  0.47319665  0.97138591    -0.06100
N801        N  0.44379406  0.45799714  0.94348257    -0.60700
N802        N  0.49096843  0.47602563  0.96878336    -0.05700
N803        N  0.50171149  0.46269822  0.93932575    -0.58500
N804        N  0.46269805  0.48237062  0.05104673    -0.05400
N805        N  0.45392049  0.46813131  0.08085228    -0.61100
C806        C  0.48469037  0.46164695  0.09667399     0.95700
C807        C  0.47210160  0.45164374  0.92400346     0.95500
N808        N  0.39024490  0.55608991  0.96440756    -0.06600
N809        N  0.37330113  0.56349634  0.93548857    -0.59100
N810        N  0.39729474  0.53334127  0.05016059    -0.04800
N811        N  0.38166154  0.52388341  0.07943112    -0.60400
N812        N  0.39466999  0.56733246  0.04580154    -0.06700
N813        N  0.37746873  0.58157447  0.07206295    -0.59400
N814        N  0.39312353  0.52208677  0.96802263    -0.04400
N815        N  0.37829396  0.50564736  0.94125691    -0.60500
Mn816      Mn  0.42670845  0.50149929  0.01062809     1.18400
C817        C  0.36580574  0.53199252  0.92116133     0.97800
C818        C  0.36928569  0.55425166  0.09309577     0.98500
N819        N  0.54624535  0.53541362  0.95565604    -0.06700
N820        N  0.56361774  0.52202636  0.92898078    -0.63000
N821        N  0.54843845  0.57928144  0.03375877    -0.05500
N822        N  0.56574787  0.59518898  0.05928989    -0.63700
N823        N  0.55124715  0.54520008  0.03686970    -0.06200
N824        N  0.57046345  0.53715859  0.06415552    -0.63300
N825        N  0.54344244  0.56947972  0.95202147    -0.05100
N826        N  0.55895847  0.57981770  0.92300186    -0.63900
Mn827      Mn  0.52224449  0.50924782  0.00255678     1.10700
C828        C  0.57160956  0.55000804  0.90856363     0.99000
C829        C  0.57956631  0.56839509  0.07797057     0.99100
N830        N  0.44968423  0.62678702  0.03304433    -0.06200
N831        N  0.43843243  0.64261563  0.06111670    -0.61600
N832        N  0.47794899  0.61929782  0.95111285    -0.05500
N833        N  0.48674378  0.63204848  0.92071561    -0.58300
N834        N  0.44375919  0.61669710  0.95331174    -0.06800
N835        N  0.42875883  0.62785528  0.92430315    -0.61100
N836        N  0.48387447  0.62944200  0.03088282    -0.05800
N837        N  0.49642773  0.64713027  0.05760536    -0.58300
Mn838      Mn  0.41863788  0.59272572  0.99909407     1.20200
Mn839      Mn  0.51414353  0.60066398  0.99178100     1.10100
Cl840      Cl  0.47049784  0.55106071  0.00121979    -0.86300
C841        C  0.46774988  0.65522478  0.07599991     0.96000
C842        C  0.45603146  0.63722175  0.90424720     0.95800
N843        N  0.48911589  0.10135412  0.57132314    -0.06500
N844        N  0.49820807  0.13136250  0.58630896    -0.58600
N845        N  0.46625626  0.01483676  0.57775084    -0.06100
N846        N  0.45855907  0.98536705  0.59370421    -0.60700
N847        N  0.50020290  0.01860089  0.57540587    -0.05700
N848        N  0.51628939  0.99132521  0.58968347    -0.58500
N849        N  0.45524850  0.09667476  0.57369788    -0.05400
N850        N  0.44072956  0.12342855  0.59015474    -0.61100
C851        C  0.46776989  0.14509134  0.59805531     0.95700
C852        C  0.48979625  0.97083480  0.60118428     0.95500
N853        N  0.40351034  0.00051458  0.49031671    -0.06600
N854        N  0.38884884  0.97047785  0.48167600    -0.59100
N855        N  0.39696843  0.08384076  0.51863229    -0.04800
N856        N  0.38447882  0.11399271  0.52917928    -0.60400
N857        N  0.39428615  0.08113767  0.48465581    -0.06700
N858        N  0.37990070  0.10951759  0.47155572    -0.59400
N859        N  0.40577886  0.00324923  0.52433219    -0.04400
N860        N  0.39267726  0.97500919  0.53936841    -0.60500
Mn861      Mn  0.43005971  0.04952710  0.54958535     1.18400
C862        C  0.38229114  0.95479942  0.51240087     0.97800
C863        C  0.37402844  0.12956530  0.49962092     0.98500
N864        N  0.54993402  0.02182621  0.51298458    -0.06700
N865        N  0.56373559  0.99296577  0.52587942    -0.63000
N866        N  0.53835050  0.10055127  0.47338671    -0.05500
N867        N  0.55001254  0.12942542  0.45836570    -0.63700
N868        N  0.54089786  0.10320702  0.50738858    -0.06200
N869        N  0.55437877  0.13385009  0.51600325    -0.63300
N870        N  0.54744860  0.01950113  0.47894796    -0.05100
N871        N  0.55962860  0.98925704  0.46821686    -0.63900
Mn872      Mn  0.52143061  0.06173977  0.54267481     1.10700
C873        C  0.56960451  0.97307021  0.49764064     0.99000
C874        C  0.55989224  0.14997012  0.48526712     0.99100
N875        N  0.44391005  0.08508160  0.42231065    -0.06200
N876        N  0.42764284  0.11209135  0.40767578    -0.61600
N877        N  0.48908750  0.00712412  0.42367990    -0.05500
N878        N  0.50338633  0.98066157  0.40656353    -0.58300
N879        N  0.45522754  0.00249978  0.42617579    -0.06800
N880        N  0.44589049  0.97289151  0.41063925    -0.61100
N881        N  0.47784317  0.08897590  0.41995575    -0.05800
N882        N  0.48534091  0.11827906  0.40361068    -0.58300
Mn883      Mn  0.42297081  0.04178138  0.45501111     1.20200
Mn884      Mn  0.51428158  0.05417845  0.44803962     1.10100
Cl885      Cl  0.47220324  0.05178141  0.49882754    -0.86300
C886        C  0.45401386  0.13260949  0.39594749     0.96000
C887        C  0.47616114  0.95929223  0.39843304     0.95800
O888        O  0.14381807  0.38799841  0.28494347    -0.88500
C889        C  0.19175565  0.19881927  0.29723730     1.11500
O890        O  0.18955864  0.33770271  0.24519764    -1.36300
O891        O  0.22833538  0.27798539  0.35158336    -0.90000
O892        O  0.17897277  0.41726551  0.24955281    -0.90700
O893        O  0.26285768  0.38482816  0.26053618    -0.79500
O894        O  0.17937069  0.32886939  0.31728294    -1.01600
C895        C  0.30485626  0.29064120  0.29299401     1.21600
O896        O  0.24983019  0.31217610  0.21795862    -1.36500
Mn897      Mn  0.19896396  0.28670715  0.22175740     1.82100
O898        O  0.29040526  0.32040648  0.29595554    -0.78600
O899        O  0.25526876  0.23301540  0.32696069    -0.88000
C900        C  0.24322050  0.22411175  0.20140627     1.12700
C901        C  0.24946259  0.25260520  0.35270187     1.07400
O902        O  0.17758529  0.29870984  0.17060127    -0.79500
O903        O  0.22026471  0.27993413  0.27371338    -1.33200
O904        O  0.20010804  0.34909067  0.17285043    -0.98700
C905        C  0.33003495  0.34753064  0.20147685     1.06100
Mn906      Mn  0.25386729  0.23678786  0.27346638     1.48600
O907        O  0.30443766  0.35939246  0.18397081    -0.87900
Mn908      Mn  0.18711373  0.38043187  0.21052578     1.49600
O909        O  0.11005220  0.33642469  0.23849151    -0.91800
C910        C  0.19736856  0.35049180  0.33217768     1.19300
C911        C  0.10818644  0.35534993  0.21151746     1.11300
Mn912      Mn  0.24112987  0.33266860  0.26964673     1.81000
O913        O  0.26091829  0.23886688  0.22310976    -0.96900
Mn914      Mn  0.14646662  0.33539866  0.27876790     1.49300
C915        C  0.15859150  0.41570325  0.27521588     1.07900
Mn916      Mn  0.29303050  0.27851028  0.21805903     1.49900
C917        C  0.27987230  0.28923635  0.13902197     1.10800
O918        O  0.23796059  0.38554887  0.21187030    -1.02700
O919        O  0.21273369  0.20105224  0.27205466    -0.92400
C920        C  0.25736092  0.40053679  0.23209176     1.22100
O921        O  0.29371397  0.27097893  0.26987178    -1.03100
O922        O  0.18610162  0.22396927  0.31770071    -0.90500
O923        O  0.29438457  0.27668936  0.16555189    -0.90100
O924        O  0.13334693  0.37454983  0.20141514    -0.90200
Mn925      Mn  0.18705074  0.27803046  0.31650970     1.47900
O926        O  0.21324911  0.23717463  0.19680708    -0.78600
C927        C  0.18214528  0.32840697  0.15659385     1.15100
O928        O  0.22729833  0.35513002  0.31946438    -0.77400
O929        O  0.15010903  0.25931269  0.23243441    -0.77000
Mn930      Mn  0.25085361  0.35050421  0.17816233     1.51100
O931        O  0.32853979  0.31932541  0.21867779    -0.89300
O932        O  0.14733740  0.28305876  0.28270057    -0.96900
O933        O  0.25915716  0.31476491  0.13914353    -0.91900
C934        C  0.13618055  0.26067893  0.26223568     1.12900
C935        C  0.67723000  0.65846233  0.81386311    -0.12600
C936        C  0.66407088  0.67377368  0.78303734     0.04400
C937        C  0.63548352  0.65657011  0.76666041    -0.07900
C938        C  0.62171969  0.62508942  0.78103231    -0.08600
C939        C  0.63491153  0.61050573  0.81206236    -0.03200
C940        C  0.66343765  0.62745232  0.82817650     0.03600
N941        N  0.67951786  0.61300615  0.85868340     0.66100
H942        H  0.69926181  0.67041024  0.82701347     0.15000
H943        H  0.59979559  0.61242908  0.76837281     0.14700
N944        N  0.61933535  0.67089729  0.73622895     0.73800
O945        O  0.68708802  0.58094104  0.85989982    -0.39600
O946        O  0.68990823  0.63291115  0.88273913    -0.39500
O947        O  0.60986158  0.65090237  0.71188413    -0.40300
O948        O  0.60931977  0.70227755  0.73604483    -0.40300
C949        C  0.80221151  0.67472839  0.66482561    -0.12600
C950        C  0.77500945  0.67066886  0.68866279     0.04400
C951        C  0.75132883  0.64290383  0.68438950    -0.07900
C952        C  0.75836488  0.61712561  0.65980704    -0.08600
C953        C  0.78926362  0.61821638  0.64025830    -0.03200
C954        C  0.81026991  0.64863771  0.64150412     0.03600
N955        N  0.84283346  0.65157296  0.62384381     0.66100
H956        H  0.81981193  0.69690948  0.66622226     0.15000
H957        H  0.74103479  0.59476030  0.65814270     0.14700
N958        N  0.72096369  0.63983105  0.70541493     0.73800
O959        O  0.84595331  0.67394743  0.60008849    -0.39600
O960        O  0.87002043  0.64034498  0.63861329    -0.39500
O961        O  0.69562675  0.66013371  0.70033211    -0.40300
O962        O  0.71757865  0.61419271  0.72570667    -0.40300
C963        C  0.59142341  0.81758376  0.66189750    -0.12600
C964        C  0.60471291  0.83141673  0.69313784     0.04400
C965        C  0.59153745  0.86449270  0.70425155    -0.07900
C966        C  0.56803306  0.88314459  0.68368362    -0.08600
C967        C  0.55438205  0.86930887  0.65317176    -0.03200
C968        C  0.56573070  0.83578524  0.64225069     0.03600
N969        N  0.55145197  0.81998004  0.61148829     0.66100
H970        H  0.60119205  0.79280298  0.65260286     0.15000
H971        H  0.55801609  0.90776048  0.69330536     0.14700
N972        N  0.60020192  0.87919782  0.73741192     0.73800
O973        O  0.54301549  0.83857176  0.58575746    -0.39600
O974        O  0.54848854  0.78717737  0.60937476    -0.39500
O975        O  0.60994898  0.91068484  0.73949337    -0.40300
O976        O  0.59179172  0.86308891  0.76467669    -0.40300
C977        C  0.55337448  0.74425729  0.78764852    -0.12600
C978        C  0.58103274  0.73977091  0.81126086     0.04400
C979        C  0.57813091  0.71364299  0.83713444    -0.07900
C980        C  0.54854599  0.69251923  0.83818336    -0.08600
C981        C  0.51992354  0.69815187  0.81601386    -0.03200
C982        C  0.52295668  0.72381712  0.78969685     0.03600
N983        N  0.49566310  0.72957823  0.76488441     0.66100
H984        H  0.55545758  0.76354473  0.76719325     0.15000
H985        H  0.54710625  0.67324124  0.85868306     0.14700
N986        N  0.60349017  0.70984673  0.86441345     0.73800
O987        O  0.48436431  0.76008530  0.75968195    -0.39600
O988        O  0.48623304  0.70513096  0.74491848    -0.39500
O989        O  0.61038140  0.73549034  0.88392618    -0.40300
O990        O  0.61365512  0.67976498  0.87320665    -0.40300
C991        C  0.73655480  0.71328524  0.61551023    -0.12600
C992        C  0.75275919  0.74286439  0.63064596     0.04400
C993        C  0.78156244  0.75765960  0.61216650    -0.07900
C994        C  0.79407928  0.74179484  0.58163649    -0.08600
C995        C  0.77839509  0.71224184  0.56699339    -0.03200
C996        C  0.74887563  0.69800670  0.58409575     0.03600
N997        N  0.73150027  0.66770537  0.57038877     0.66100
H998        H  0.71478739  0.70125471  0.62872334     0.15000
H999        H  0.81576346  0.75373976  0.56816295     0.14700
N1000       N  0.79750656  0.79010092  0.62241673     0.73800
O1001       O  0.74888281  0.64236503  0.55880610    -0.39600
O1002       O  0.69875551  0.66516039  0.57194701    -0.39500
O1003       O  0.82999295  0.79403474  0.61917864    -0.40300
O1004       O  0.77888593  0.81701637  0.62512112    -0.40300
C1005       C  0.66500964  0.83824022  0.59039390    -0.12600
C1006       C  0.66840453  0.86244472  0.61740701     0.04400
C1007       C  0.64857987  0.89372282  0.61627172    -0.07900
C1008       C  0.62533706  0.89933421  0.58912782    -0.08600
C1009       C  0.62320346  0.87627992  0.56106251    -0.03200
C1010       C  0.64267402  0.84476897  0.56222509     0.03600
N1011       N  0.64017115  0.81915680  0.53520757     0.66100
H1012       H  0.67928820  0.81387383  0.59141517     0.15000
H1013       H  0.61121534  0.92378898  0.58872577     0.14700
N1014       N  0.65344083  0.92141574  0.64103490     0.73800
O1015       O  0.66745039  0.80662268  0.52207572    -0.39600
O1016       O  0.61088353  0.80648464  0.52690569    -0.39500
O1017       O  0.68349259  0.93396400  0.64620723    -0.40300
O1018       O  0.62737412  0.93712222  0.65321913    -0.40300
C1019       C  0.89006601  0.76786751  0.80530570    -0.12600
C1020       C  0.86282526  0.74338617  0.80857073     0.04400
C1021       C  0.86612600  0.71670217  0.83393215    -0.07900
C1022       C  0.89596682  0.71501854  0.85450611    -0.08600
C1023       C  0.92443468  0.73749119  0.84926976    -0.03200
C1024       C  0.92078011  0.76504262  0.82510526     0.03600
N1025       N  0.94790984  0.79019191  0.82008008     0.66100
H1026       H  0.88763323  0.78941123  0.78730247     0.15000
H1027       H  0.89764465  0.69377366  0.87298987     0.14700
N1028       N  0.84082525  0.68933454  0.83782196     0.73800
O1029       O  0.96290444  0.79235484  0.79115454    -0.39600
O1030       O  0.95428016  0.81266610  0.84322781    -0.39500
O1031       O  0.83747757  0.66672296  0.81418894    -0.40300
O1032       O  0.82865119  0.68283050  0.86743944    -0.40300
C1033       C  0.88763252  0.85403749  0.68141703    -0.12600
C1034       C  0.89035870  0.89035739  0.67810249     0.04400
C1035       C  0.86837433  0.91146423  0.69896881    -0.07900
C1036       C  0.84259954  0.89527208  0.72020027    -0.08600
C1037       C  0.83918772  0.85859952  0.72214612    -0.03200
C1038       C  0.86327565  0.83818799  0.70318947     0.03600
N1039       N  0.86469635  0.80099743  0.70675282     0.66100
H1040       H  0.90557036  0.83742061  0.66744512     0.15000
H1041       H  0.82451993  0.91137876  0.73444034     0.14700
N1042       N  0.87267836  0.94880765  0.70023862     0.73800
O1043       O  0.84560744  0.78212813  0.68769512    -0.39600
O1044       O  0.89139518  0.78754165  0.72046531    -0.39500
O1045       O  0.88391761  0.96551650  0.67440382    -0.40300
O1046       O  0.86529576  0.96536487  0.72750401    -0.40300
C1047       C  0.69553799  0.97190693  0.84803756    -0.12600
C1048       C  0.65981789  0.97973957  0.84347761     0.04400
C1049       C  0.63865733  0.95378549  0.82796850    -0.07900
C1050       C  0.65339514  0.92243361  0.81575262    -0.08600
C1051       C  0.68945788  0.91514776  0.81801602    -0.03200
C1052       C  0.71041305  0.93988440  0.83630721     0.03600
N1053       N  0.74632125  0.93303618  0.84416159     0.66100
H1054       H  0.71215178  0.99092993  0.86085424     0.15000
H1055       H  0.63610704  0.90370387  0.80351780     0.14700
N1056       N  0.60220035  0.95952680  0.82257749     0.73800
O1057       O  0.76722501  0.92469204  0.82051053    -0.39600
O1058       O  0.75809425  0.93940010  0.87413868    -0.39500
O1059       O  0.59212088  0.98332092  0.80223721    -0.40300
O1060       O  0.58027098  0.93821840  0.83470701    -0.40300
C1061       C  0.79628890  0.99390215  0.69941580    -0.12600
C1062       C  0.80582943  0.99466430  0.66422890     0.04400
C1063       C  0.79313981  0.96871237  0.64159073    -0.07900
C1064       C  0.77256921  0.94211758  0.65475603    -0.08600
C1065       C  0.76421054  0.94043056  0.69015999    -0.03200
C1066       C  0.77535826  0.96718389  0.71265729     0.03600
N1067       N  0.76712730  0.96711898  0.74884726     0.66100
H1068       H  0.80535007  0.01416514  0.71694083     0.15000
H1069       H  0.76326552  0.92216126  0.63695408     0.14700
N1070       N  0.79984519  0.96929436  0.60511747     0.73800
O1071       O  0.79037562  0.97514796  0.77075986    -0.39600
O1072       O  0.73568680  0.96681680  0.75817976    -0.39500
O1073       O  0.81460603  0.94358697  0.59100342    -0.40300
O1074       O  0.78577544  0.99233936  0.58632203    -0.40300
C1075       C  0.82128073  0.77216791  0.92544068    -0.12600
C1076       C  0.80940457  0.74081784  0.94069561     0.04400
C1077       C  0.78239770  0.72222976  0.92374060    -0.07900
C1078       C  0.76892998  0.73438622  0.89188546    -0.08600
C1079       C  0.78097931  0.76535655  0.87590517    -0.03200
C1080       C  0.80752016  0.78441827  0.89338106     0.03600
N1081       N  0.82150221  0.81566504  0.87862113     0.66100
H1082       H  0.84200427  0.78678975  0.93802599     0.15000
H1083       H  0.74816482  0.71943523  0.87975950     0.14700
N1084       N  0.76777390  0.69117777  0.93885519     0.73800
O1085       O  0.84294478  0.81370564  0.85407096    -0.39600
O1086       O  0.81653423  0.84466932  0.89329818    -0.39500
O1087       O  0.76011234  0.69048656  0.97062319    -0.40300
O1088       O  0.75908135  0.66572087  0.91982921    -0.40300
C1089       C  0.67745907  0.88270703  0.93903220    -0.12600
C1090       C  0.64218641  0.89175895  0.94271756     0.04400
C1091       C  0.61637554  0.87306211  0.92426890    -0.07900
C1092       C  0.62629499  0.84686262  0.90182821    -0.08600
C1093       C  0.66148398  0.83925737  0.89644532    -0.03200
C1094       C  0.68752440  0.85679767  0.91558921     0.03600
N1095       N  0.72387496  0.84992385  0.91059703     0.66100
H1096       H  0.69727357  0.89642360  0.95391399     0.15000
H1097       H  0.60623113  0.83322112  0.88713120     0.14700
N1098       N  0.57993105  0.87934677  0.92872679     0.73800
O1099       O  0.73648599  0.84972933  0.88049414    -0.39600
O1100       O  0.74421949  0.84867507  0.93640048    -0.39500
O1101       O  0.56187713  0.89019490  0.90350546    -0.40300
O1102       O  0.56490304  0.86868420  0.95575564    -0.40300
C1103       C  0.81425123  0.62336394  0.33818334    -0.12600
C1104       C  0.78535497  0.60130773  0.34352160     0.04400
C1105       C  0.75357892  0.60902138  0.32627212    -0.07900
C1106       C  0.75178781  0.63862139  0.30448336    -0.08600
C1107       C  0.78085491  0.66059320  0.30003075    -0.03200
C1108       C  0.81251851  0.65215952  0.31647366     0.03600
N1109       N  0.84372742  0.67184660  0.31028147     0.66100
H1110       H  0.83935714  0.61756717  0.34975208     0.15000
H1111       H  0.72724143  0.64540563  0.29225444     0.14700
N1112       N  0.72279815  0.58829335  0.33154464     0.73800
O1113       O  0.86151090  0.68340691  0.33543806    -0.39600
O1114       O  0.85562566  0.67417280  0.27995837    -0.39500
O1115       O  0.71438999  0.57885826  0.36171237    -0.40300
O1116       O  0.70153535  0.58346451  0.30689037    -0.40300
C1117       C  0.67515650  0.68285098  0.17888610    -0.12600
C1118       C  0.66666662  0.69000998  0.21393344     0.04400
C1119       C  0.64127221  0.66882278  0.22992839    -0.07900
C1120       C  0.62574761  0.64114341  0.21088146    -0.08600
C1121       C  0.63492771  0.63444557  0.17612267    -0.03200
C1122       C  0.65972396  0.65578834  0.16018286     0.03600
N1123       N  0.67106064  0.64916978  0.12549428     0.66100
H1124       H  0.69443499  0.69827444  0.16528327     0.15000
H1125       H  0.60722093  0.62407070  0.22357840     0.14700
N1126       N  0.63166009  0.67422447  0.26529860     0.73800
O1127       O  0.66821816  0.67269421  0.10273320    -0.39600
O1128       O  0.68855004  0.62211430  0.11896485    -0.39500
O1129       O  0.59989868  0.67518303  0.27346354    -0.40300
O1130       O  0.65455053  0.67303465  0.28889663    -0.40300
C1131       C  0.59200421  0.72509904  0.16927075    -0.12600
C1132       C  0.58843181  0.75605903  0.18861165     0.04400
C1133       C  0.55501033  0.76678786  0.19892474    -0.07900
C1134       C  0.52630206  0.74585456  0.19031978    -0.08600
C1135       C  0.53011762  0.71523213  0.17034736    -0.03200
C1136       C  0.56342077  0.70452635  0.16044251     0.03600
N1137       N  0.56855397  0.67302139  0.14117297     0.66100
H1138       H  0.61727476  0.71676371  0.16051938     0.15000
H1139       H  0.50060366  0.75513051  0.19711105     0.14700
N1140       N  0.54924881  0.80019875  0.21474443     0.73800
O1141       O  0.58749820  0.67319857  0.11456128    -0.39600
O1142       O  0.55389567  0.64501011  0.15056488    -0.39500
O1143       O  0.55925272  0.82763192  0.19954377    -0.40300
O1144       O  0.52854562  0.80280091  0.23987658    -0.40300
C1145       C  0.60667522  0.87291859  0.31978742    -0.12600
C1146       C  0.61062194  0.83692433  0.31296813     0.04400
C1147       C  0.58210542  0.81482311  0.32088274    -0.07900
C1148       C  0.55022775  0.82922436  0.33291482    -0.08600
C1149       C  0.54626123  0.86548627  0.33922598    -0.03200
C1150       C  0.57567336  0.88704904  0.33320627     0.03600
N1151       N  0.57410022  0.92392377  0.33873246     0.66100
H1152       H  0.62781163  0.89073817  0.31398223     0.15000
H1153       H  0.52852431  0.81176794  0.33777108     0.14700
N1154       N  0.58477400  0.77785680  0.31616119     0.73800
O1155       O  0.58865587  0.93716503  0.36507169    -0.39600
O1156       O  0.56265730  0.94358521  0.31503639    -0.39500
O1157       O  0.60436603  0.76023145  0.33583409    -0.40300
O1158       O  0.56480388  0.76230966  0.29508305    -0.40300
C1159       C  0.64885695  0.90912631  0.42355259    -0.12600
C1160       C  0.62911118  0.88192218  0.43773292     0.04400
C1161       C  0.63577326  0.84691969  0.42826192    -0.07900
C1162       C  0.66279272  0.84006136  0.40492082    -0.08600
C1163       C  0.68251898  0.86756989  0.39116005    -0.03200
C1164       C  0.67574485  0.90227192  0.40090881     0.03600
N1165       N  0.69602658  0.93082949  0.38770175     0.66100
H1166       H  0.64481872  0.93592912  0.43167794     0.15000
H1167       H  0.66692184  0.81364286  0.39571043     0.14700
N1168       N  0.61447918  0.81866306  0.44076598     0.73800
O1169       O  0.68124514  0.95821849  0.37695559    -0.39600
O1170       O  0.72882954  0.92985948  0.38942002    -0.39500
O1171       O  0.58233911  0.82318402  0.44579086    -0.40300
O1172       O  0.62687107  0.78825287  0.44341369    -0.40300
C1173       C  0.77986646  0.75191391  0.43285435    -0.12600
C1174       C  0.77576645  0.71595098  0.43806731     0.04400
C1175       C  0.75851140  0.69630210  0.41182083    -0.07900
C1176       C  0.74700489  0.71301959  0.38086414    -0.08600
C1177       C  0.75312778  0.74887645  0.37474164    -0.03200
C1178       C  0.76935017  0.76841281  0.40189471     0.03600
N1179       N  0.77454105  0.80539544  0.39945603     0.66100
H1180       H  0.79243710  0.76744479  0.45287456     0.15000
H1181       H  0.73459216  0.69749115  0.36077550     0.14700
N1182       N  0.75186724  0.65965284  0.41625957     0.73800
O1183       O  0.76293205  0.82489013  0.42309062    -0.39600
O1184       O  0.79730612  0.81742448  0.37926912    -0.39500
O1185       O  0.72273913  0.64691582  0.40749369    -0.40300
O1186       O  0.77572482  0.63947536  0.42653253    -0.40300
C1187       C  0.69007571  0.87232195  0.09139423    -0.12600
C1188       C  0.66389094  0.85967237  0.11308851     0.04400
C1189       C  0.62934485  0.87203946  0.10920387    -0.07900
C1190       C  0.62238305  0.89855810  0.08561927    -0.08600
C1191       C  0.64794096  0.91018155  0.06268407    -0.03200
C1192       C  0.68238424  0.89710505  0.06576554     0.03600
N1193       N  0.70935468  0.90775394  0.04236387     0.66100
H1194       H  0.71661641  0.86336427  0.09474311     0.15000
H1195       H  0.59562430  0.90693180  0.08243562     0.14700
N1196       N  0.60058874  0.85614652  0.12714703     0.73800
O1197       O  0.71267527  0.93945905  0.03392785    -0.39600
O1198       O  0.73009982  0.88544111  0.03016647    -0.39500
O1199       O  0.57448093  0.87423170  0.13542297    -0.40300
O1200       O  0.59869697  0.82328684  0.12958494    -0.40300
C1201       C  0.79617013  0.73799665  0.12907686    -0.12600
C1202       C  0.79100701  0.77447141  0.13219901     0.04400
C1203       C  0.80058358  0.79533637  0.10327731    -0.07900
C1204       C  0.81302295  0.77918764  0.07239370    -0.08600
C1205       C  0.81794611  0.74261990  0.06952752    -0.03200
C1206       C  0.81003250  0.72229419  0.09906468     0.03600
N1207       N  0.81385557  0.68516059  0.09850607     0.66100
H1208       H  0.78870208  0.72094802  0.15015934     0.15000
H1209       H  0.81911153  0.79555723  0.05033212     0.14700
N1210       N  0.79653431  0.83259288  0.10391036     0.73800
O1211       O  0.84290199  0.67176209  0.10613103    -0.39600
O1212       O  0.78718934  0.66589200  0.09627034    -0.39500
O1213       O  0.80995375  0.85025574  0.12820246    -0.40300
O1214       O  0.78524101  0.84830527  0.07738183    -0.40300
C1215       C  0.71120006  0.94139527  0.16303363    -0.12600
C1216       C  0.69250984  0.91982683  0.18585131     0.04400
C1217       C  0.65551775  0.92489764  0.18785720    -0.07900
C1218       C  0.63868493  0.94882327  0.16625798    -0.08600
C1219       C  0.65735482  0.97162852  0.14536441    -0.03200
C1220       C  0.69412835  0.96799307  0.14379921     0.03600
N1221       N  0.71449059  0.99186526  0.12368757     0.66100
H1222       H  0.73917280  0.93851262  0.16108111     0.15000
H1223       H  0.61086197  0.95253428  0.16921265     0.14700
N1224       N  0.63450099  0.90866489  0.21397769     0.73800
O1225       O  0.74047374  0.00710129  0.13714107    -0.39600
O1226       O  0.70619878  0.99831624  0.09264026    -0.39500
O1227       O  0.63744009  0.91893467  0.24496249    -0.40300
O1228       O  0.60756137  0.89179050  0.20516726    -0.40300
C1229       C  0.83816412  0.97652633  0.32697726    -0.12600
C1230       C  0.83132205  0.00595524  0.30633259     0.04400
C1231       C  0.80377985  0.00405643  0.28188465    -0.07900
C1232       C  0.78220975  0.97427594  0.28076541    -0.08600
C1233       C  0.78737697  0.94620713  0.30380923    -0.03200
C1234       C  0.81603780  0.94770402  0.32721549     0.03600
N1235       N  0.82194256  0.92162401  0.35334689     0.66100
H1236       H  0.85942419  0.97679925  0.34558547     0.15000
H1237       H  0.76123062  0.97326316  0.26186505     0.14700
N1238       N  0.79719468  0.03199128  0.25818534     0.73800
O1239       O  0.85197715  0.90889839  0.35733640    -0.39600
O1240       O  0.79974380  0.91726167  0.37694526    -0.39500
O1241       O  0.81571949  0.03514853  0.23146654    -0.40300
O1242       O  0.77025392  0.05046747  0.26142082    -0.40300
C1243       C  0.90542730  0.85964963  0.31677462    -0.12600
C1244       C  0.91547014  0.89279227  0.30525385     0.04400
C1245       C  0.89543755  0.90878891  0.27869377    -0.07900
C1246       C  0.86482233  0.89204962  0.26585587    -0.08600
C1247       C  0.85373571  0.85938081  0.27882927    -0.03200
C1248       C  0.87555377  0.84277287  0.30374531     0.03600
N1249       N  0.86892588  0.80786149  0.31515321     0.66100
H1250       H  0.92126463  0.84639115  0.33603646     0.15000
H1251       H  0.84898660  0.90527897  0.24661590     0.14700
N1252       N  0.90571515  0.94185718  0.26452409     0.73800
O1253       O  0.88424062  0.78307985  0.30008678    -0.39600
O1254       O  0.85784064  0.80303152  0.34546314    -0.39500
O1255       O  0.90579228  0.94635717  0.23211850    -0.40300
O1256       O  0.91389017  0.96693712  0.28424928    -0.40300
C1257       C  0.91473643  0.75769650  0.16636767    -0.12600
C1258       C  0.92059423  0.72221341  0.15918094     0.04400
C1259       C  0.90226817  0.69610219  0.17746457    -0.07900
C1260       C  0.87604556  0.70600579  0.19972007    -0.08600
C1261       C  0.86889823  0.74125282  0.20554082    -0.03200
C1262       C  0.88881585  0.76750515  0.18961493     0.03600
N1263       N  0.88182843  0.80379165  0.19527056     0.66100
H1264       H  0.92969305  0.77772684  0.15322049     0.15000
H1265       H  0.86086009  0.68593552  0.21255198     0.14700
N1266       N  0.91113457  0.65972712  0.17534325     0.73800
O1267       O  0.90603033  0.82405552  0.20489559    -0.39600
O1268       O  0.85250588  0.81630495  0.18727426    -0.39500
O1269       O  0.94172451  0.65002170  0.18261506    -0.40300
O1270       O  0.88737315  0.63700313  0.17240661    -0.40300
C1271       C  0.15445268  0.67811843  0.69189649    -0.12600
C1272       C  0.18977046  0.68715974  0.68704159     0.04400
C1273       C  0.20870503  0.66954669  0.66122168    -0.07900
C1274       C  0.19270737  0.64242494  0.64225877    -0.08600
C1275       C  0.15766605  0.63333973  0.64786729    -0.03200
C1276       C  0.13842371  0.65158677  0.67278806     0.03600
N1277       N  0.10331440  0.64182927  0.68081314     0.66100
H1278       H  0.13900446  0.69126529  0.71131772     0.15000
H1279       H  0.20775257  0.62818303  0.62328485     0.14700
N1280       N  0.24395501  0.67881133  0.65392558     0.73800
O1281       O  0.09701054  0.61207876  0.69350870    -0.39600
O1282       O  0.07951695  0.66448509  0.67991951    -0.39500
O1283       O  0.26858168  0.66188310  0.66764657    -0.40300
O1284       O  0.25042849  0.70143532  0.63104116    -0.40300
C1285       C  0.26638248  0.62913330  0.79204536    -0.12600
C1286       C  0.26924443  0.65785231  0.81451642     0.04400
C1287       C  0.28871163  0.65423896  0.84557977    -0.07900
C1288       C  0.30495543  0.62278996  0.85326395    -0.08600
C1289       C  0.30206523  0.59379299  0.83116733    -0.03200
C1290       C  0.28258566  0.59726305  0.80001559     0.03600
N1291       N  0.27899721  0.56894147  0.77611325     0.66100
H1292       H  0.25177596  0.63147073  0.76803305     0.15000
H1293       H  0.31932701  0.62111897  0.87745691     0.14700
N1294       N  0.29124208  0.68180159  0.87056115     0.73800
O1295       O  0.25174371  0.55040894  0.77622164    -0.39600
O1296       O  0.30091143  0.56524875  0.75217481    -0.39500
O1297       O  0.26715016  0.68609993  0.89222711    -0.40300
O1298       O  0.31953335  0.69832976  0.87421903    -0.40300
C1299       C  0.34064330  0.70221454  0.77414848    -0.12600
C1300       C  0.34112668  0.73889980  0.77736711     0.04400
C1301       C  0.36910922  0.75465230  0.79550914    -0.07900
C1302       C  0.39409580  0.73408798  0.81180062    -0.08600
C1303       C  0.39346334  0.69774654  0.80939852    -0.03200
C1304       C  0.36678269  0.68126948  0.78973690     0.03600
N1305       N  0.36618938  0.64401431  0.78457153     0.66100
H1306       H  0.31925359  0.68978827  0.76038956     0.15000
H1307       H  0.41556892  0.74694086  0.82515092     0.14700
N1308       N  0.37519980  0.79142212  0.79456102     0.73800
O1309       O  0.37846506  0.62358485  0.80719869    -0.39600
O1310       O  0.35216927  0.63122759  0.75771178    -0.39500
O1311       O  0.38052745  0.80712554  0.82283004    -0.40300
O1312       O  0.38886160  0.80382026  0.76758974    -0.40300
C1313       C  0.40474576  0.90624428  0.67244978    -0.12600
C1314       C  0.42826448  0.87979471  0.66334917     0.04400
C1315       C  0.42101995  0.84496020  0.67364380    -0.07900
C1316       C  0.39089573  0.83776450  0.69316106    -0.08600
C1317       C  0.36785557  0.86454234  0.70242266    -0.03200
C1318       C  0.37520881  0.89921008  0.69213633     0.03600
N1319       N  0.35365767  0.92789611  0.70267662     0.66100
H1320       H  0.41011218  0.93320568  0.66569509     0.15000
H1321       H  0.38467990  0.81097042  0.69980200     0.14700
N1322       N  0.44293671  0.81653685  0.66336328     0.73800
O1323       O  0.34555185  0.93144830  0.73412977    -0.39600
O1324       O  0.34623808  0.95191257  0.68147131    -0.39500
O1325       O  0.44955490  0.79213085  0.68438607    -0.40300
O1326       O  0.45200302  0.81346223  0.63212038    -0.40300
C1327       C  0.28210219  0.86718532  0.62617166    -0.12600
C1328       C  0.28724901  0.83209226  0.63613549     0.04400
C1329       C  0.31231085  0.81216677  0.61830629    -0.07900
C1330       C  0.32973567  0.82698882  0.58981804    -0.08600
C1331       C  0.32366582  0.86178636  0.57973991    -0.03200
C1332       C  0.29957866  0.88204249  0.59820655     0.03600
N1333       N  0.29049715  0.91680527  0.58738914     0.66100
H1334       H  0.26325559  0.88321631  0.63949217     0.15000
H1335       H  0.34810424  0.81128903  0.57543434     0.14700
N1336       N  0.32047346  0.77721572  0.62868617     0.73800
O1337       O  0.28139645  0.92253824  0.55640548    -0.39600
O1338       O  0.28628769  0.94048447  0.60973846    -0.39500
O1339       O  0.31855647  0.75265470  0.60692360    -0.40300
O1340       O  0.33507490  0.77187725  0.65760214    -0.40300
C1341       C  0.13070915  0.73087305  0.60522094    -0.12600
C1342       C  0.16115581  0.75119980  0.60698226     0.04400
C1343       C  0.18165126  0.75466877  0.57682454    -0.07900
C1344       C  0.17086571  0.73844766  0.54582446    -0.08600
C1345       C  0.13936507  0.71951890  0.54380728    -0.03200
C1346       C  0.11936803  0.71576869  0.57436514     0.23200
N1347       N  0.08639199  0.69829178  0.57458039     0.66100
H1348       H  0.11430489  0.72772525  0.62777181     0.15000
H1349       H  0.18677609  0.74172919  0.52296158     0.14700
N1350       N  0.21314846  0.77476133  0.57692238     0.73800
O1351       O  0.08433516  0.66742750  0.58583582    -0.39600
O1352       O  0.05888241  0.71567797  0.56991657    -0.39500
O1353       O  0.24194326  0.75957519  0.57280466    -0.40300
O1354       O  0.21164950  0.80757276  0.57394350    -0.40300
C1355       C  0.06390165  0.77638221  0.85693522    -0.12600
C1356       C  0.05158412  0.74265504  0.84893728     0.04400
C1357       C  0.06764117  0.72352484  0.82251789    -0.07900
C1358       C  0.09557347  0.73802292  0.80458791    -0.08600
C1359       C  0.10832434  0.77182249  0.81218297    -0.03200
C1360       C  0.09261969  0.79082716  0.83929314     0.03600
N1361       N  0.10575744  0.82428657  0.84960398     0.66100
H1362       H  0.05142083  0.79133764  0.87717779     0.15000
H1363       H  0.10690052  0.72265564  0.78396469     0.14700
N1364       N  0.05431675  0.69015244  0.81203207     0.73800
O1365       O  0.08667113  0.85095035  0.84705747    -0.39600
O1366       O  0.13462701  0.82648085  0.86531568    -0.39500
O1367       O  0.02588810  0.68821293  0.79551309    -0.40300
O1368       O  0.07257647  0.66309427  0.81609323    -0.40300
C1369       C  0.07833083  0.87054217  0.65621859    -0.12600
C1370       C  0.07983467  0.84983974  0.68628397     0.04400
C1371       C  0.04942974  0.84648575  0.70657531    -0.07900
C1372       C  0.01830082  0.86248670  0.69544940    -0.08600
C1373       C  0.01671756  0.88236225  0.66469269    -0.03200
C1374       C  0.04758817  0.88638818  0.64521355     0.03600
N1375       N  0.04825501  0.90523811  0.61324234     0.66100
H1376       H  0.10108256  0.87373288  0.64003128     0.15000
H1377       H  0.99523515  0.85938816  0.71118567     0.14700
N1378       N  0.04970129  0.82769527  0.73872010     0.73800
O1379       O  0.05991913  0.93608307  0.61269048    -0.39600
O1380       O  0.04334628  0.88913982  0.58507351    -0.39500
O1381       O  0.07085040  0.83632029  0.76243092    -0.40300
O1382       O  0.02561736  0.80622978  0.74537755    -0.40300
C1383       C  0.27211435  0.00509716  0.81185999    -0.12600
C1384       C  0.30417971  0.00780529  0.82963637     0.04400
C1385       C  0.32589604  0.97803123  0.83174434    -0.07900
C1386       C  0.31566162  0.94721378  0.81593396    -0.08600
C1387       C  0.28427124  0.94463401  0.79744343    -0.03200
C1388       C  0.26172358  0.97366570  0.79603209     0.03600
N1389       N  0.22800935  0.97139369  0.77988756     0.66100
H1390       H  0.25481677  0.02736519  0.81051397     0.15000
H1391       H  0.33358568  0.92542453  0.81699552     0.14700
N1392       N  0.35943171  0.97867137  0.84813935     0.73800
O1393       O  0.20765889  0.94662988  0.78755506    -0.39600
O1394       O  0.21664331  0.99652656  0.76196297    -0.39500
O1395       O  0.36391584  0.96271282  0.87642964    -0.40300
O1396       O  0.38561443  0.98869714  0.83114001    -0.40300
C1397       C  0.15035837  0.96349832  0.67440120    -0.12600
C1398       C  0.11764436  0.97056007  0.68793270     0.04400
C1399       C  0.10612361  0.95226235  0.71754558    -0.07900
C1400       C  0.12788872  0.92671456  0.73279575    -0.08600
C1401       C  0.16095669  0.91955302  0.71902936    -0.03200
C1402       C  0.17229952  0.93902438  0.68972276     0.03600
N1403       N  0.20648175  0.93511674  0.67546619     0.66100
H1404       H  0.15984644  0.97870392  0.65265828     0.15000
H1405       H  0.11844243  0.91155751  0.75453001     0.14700
N1406       N  0.07242447  0.95897028  0.73191510     0.73800
O1407       O  0.21007127  0.93133312  0.64318748    -0.39600
O1408       O  0.23286095  0.94223364  0.69382888    -0.39500
O1409       O  0.04642452  0.96348079  0.71223018    -0.40300
O1410       O  0.06808463  0.95824475  0.76430433    -0.40300
C1411       C  0.30173265  0.88844826  0.90117737    -0.12600
C1412       C  0.27851191  0.90859643  0.92014220     0.04400
C1413       C  0.24276816  0.90793605  0.91109198    -0.07900
C1414       C  0.23110883  0.88653252  0.88348482    -0.08600
C1415       C  0.25448066  0.86541354  0.86496580    -0.03200
C1416       C  0.29030484  0.86657228  0.87451949     0.03600
N1417       N  0.31595130  0.84570404  0.85771931     0.66100
H1418       H  0.32908428  0.88812638  0.90839308     0.15000
H1419       H  0.20377947  0.88667824  0.87631441     0.14700
N1420       N  0.21838811  0.92975404  0.92877463     0.73800
O1421       O  0.34241631  0.86055929  0.84517346    -0.39600
O1422       O  0.31685795  0.81325809  0.86360707    -0.39500
O1423       O  0.22458542  0.96199305  0.93226633    -0.40300
O1424       O  0.18903484  0.91777339  0.93744061    -0.40300
C1425       C  0.14176874  0.70009512  0.92820825    -0.12600
C1426       C  0.13813887  0.72530842  0.95438674     0.04400
C1427       C  0.15385414  0.75856032  0.94947747    -0.07900
C1428       C  0.17351141  0.76516731  0.91936421    -0.08600
C1429       C  0.17703486  0.73959409  0.89351178    -0.03200
C1430       C  0.16120171  0.70652286  0.89848403     0.03600
N1431       N  0.16582513  0.67840616  0.87431696     0.66100
H1432       H  0.13073513  0.67420122  0.93131286     0.15000
H1433       H  0.18486338  0.79083810  0.91552001     0.14700
N1434       N  0.14899668  0.78628263  0.97388808     0.73800
O1435       O  0.19609969  0.66858116  0.86640991    -0.39600
O1436       O  0.13993161  0.66050238  0.86441942    -0.39500
O1437       O  0.17479112  0.80402034  0.98426174    -0.40300
O1438       O  0.11861032  0.79629829  0.98113418    -0.40300
C1439       C  0.82200559  0.47281934  0.66890306    -0.12600
C1440       C  0.79576284  0.49406392  0.65515748     0.04400
C1441       C  0.76095002  0.48961182  0.66652559    -0.07900
C1442       C  0.75330111  0.46353433  0.69082231    -0.08600
C1443       C  0.77965954  0.44207580  0.70390290    -0.03200
C1444       C  0.81461145  0.44769003  0.69380590     0.03600
N1445       N  0.84297439  0.42867685  0.70931790     0.66100
H1446       H  0.84896052  0.47713440  0.66188378     0.15000
H1447       H  0.72646623  0.45875341  0.69802061     0.14700
N1448       N  0.73303799  0.51059352  0.65312525     0.73800
O1449       O  0.86932719  0.42073603  0.69160188    -0.39600
O1450       O  0.84368482  0.42363726  0.74162611    -0.39500
O1451       O  0.72945967  0.51479077  0.62085069    -0.40300
O1452       O  0.71002617  0.52220808  0.67327330    -0.40300
C1453       C  0.64988645  0.42127792  0.81705679    -0.12600
C1454       C  0.65175092  0.41700549  0.78070052     0.04400
C1455       C  0.63919398  0.44483238  0.75994684    -0.07900
C1456       C  0.62780658  0.47645652  0.77567071    -0.08600
C1457       C  0.62686392  0.48080569  0.81211160    -0.03200
C1458       C  0.63755203  0.45216379  0.83263906     0.03600
N1459       N  0.63861303  0.45483245  0.86957012     0.66100
H1460       H  0.65919389  0.40064592  0.83393482     0.15000
H1461       H  0.61924930  0.49771295  0.75918394     0.14700
N1462       N  0.63838137  0.44178891  0.72299478     0.73800
O1463       O  0.61692695  0.43803018  0.88756199    -0.39600
O1464       O  0.66387150  0.47015277  0.88423588    -0.39500
O1465       O  0.61926680  0.41889054  0.70886630    -0.40300
O1466       O  0.65234153  0.46507133  0.70448798    -0.40300
C1467       C  0.56257485  0.36616945  0.78503425    -0.12600
C1468       C  0.57390908  0.34069795  0.80854287     0.04400
C1469       C  0.56201499  0.34046560  0.84294042    -0.07900
C1470       C  0.54039620  0.36724734  0.85385641    -0.08600
C1471       C  0.52946480  0.39320943  0.83071766    -0.03200
C1472       C  0.54008159  0.39254524  0.79590409     0.03600
N1473       N  0.52918521  0.41907363  0.77197082     0.66100
H1474       H  0.57313019  0.36694220  0.75904489     0.15000
H1475       H  0.53046611  0.36674470  0.88009928     0.14700
N1476       N  0.57241265  0.31358818  0.86700300     0.73800
O1477       O  0.53075105  0.45090165  0.78049941    -0.39600
O1478       O  0.51987020  0.41092610  0.74158936    -0.39500
O1479       O  0.57459188  0.32008571  0.89902639    -0.40300
O1480       O  0.57702267  0.28263870  0.85667275    -0.40300
C1481       C  0.55507057  0.22071074  0.66379518    -0.12600
C1482       C  0.52665944  0.24311416  0.65952732     0.04400
C1483       C  0.53124786  0.27855007  0.66988662    -0.07900
C1484       C  0.56367735  0.29011814  0.68413300    -0.08600
C1485       C  0.59212166  0.26723522  0.68860196    -0.03200
C1486       C  0.58699027  0.23168385  0.67802557     0.03600
N1487       N  0.61443062  0.20634139  0.67843900     0.66100
H1488       H  0.55253251  0.19350468  0.65636380     0.15000
H1489       H  0.56658227  0.31720656  0.69184733     0.14700
N1490       N  0.50376802  0.30338200  0.66537422     0.73800
O1491       O  0.62666307  0.19576135  0.70686777    -0.39600
O1492       O  0.61974625  0.18818743  0.65165268    -0.39500
O1493       O  0.49561894  0.32345042  0.68996158    -0.40300
O1494       O  0.49054450  0.30820288  0.63572692    -0.40300
C1495       C  0.62842468  0.25728138  0.60171719    -0.12600
C1496       C  0.66492386  0.25589092  0.60093814     0.04400
C1497       C  0.68171565  0.25162259  0.56892876    -0.07900
C1498       C  0.66183059  0.24564602  0.53883129    -0.08600
C1499       C  0.62526567  0.24374589  0.54031761    -0.03200
C1500       C  0.60845242  0.25047767  0.57190683     0.03600
N1501       N  0.57121091  0.25081712  0.57438792     0.66100
H1502       H  0.61583260  0.26281195  0.62487931     0.15000
H1503       H  0.67499416  0.24071747  0.51467699     0.14700
N1504       N  0.71886649  0.25113431  0.56692258     0.73800
O1505       O  0.55411235  0.22283859  0.57055019    -0.39600
O1506       O  0.55617443  0.27734918  0.58656200    -0.39500
O1507       O  0.73481286  0.22237451  0.56603700    -0.40300
O1508       O  0.73557136  0.27938361  0.56354926    -0.40300
C1509       C  0.73093499  0.39002245  0.61353561    -0.12600
C1510       C  0.75057342  0.36741019  0.63469455     0.04400
C1511       C  0.78682727  0.36428049  0.62729336    -0.07900
C1512       C  0.80259805  0.38477396  0.60180441    -0.08600
C1513       C  0.78301079  0.40573158  0.57965965    -0.03200
C1514       C  0.74653149  0.40816646  0.58539260     0.03600
N1515       N  0.72496869  0.42841854  0.56260420     0.66100
H1516       H  0.70327079  0.39273368  0.61809029     0.15000
H1517       H  0.82999360  0.38074331  0.59644490     0.14700
N1518       N  0.80708446  0.33627181  0.64104959     0.73800
O1519       O  0.69587136  0.41660186  0.55253618    -0.39600
O1520       O  0.73428925  0.45871337  0.55351720    -0.39500
O1521       O  0.80189538  0.30602489  0.62900117    -0.40300
O1522       O  0.83509913  0.34276250  0.65714620    -0.40300
C1523       C  0.79665478  0.17195040  0.65453773    -0.12600
C1524       C  0.77380674  0.16882072  0.68274029     0.04400
C1525       C  0.77851976  0.14128531  0.70655597    -0.07900
C1526       C  0.80477849  0.11686166  0.70044085    -0.08600
C1527       C  0.82432419  0.11777633  0.66962667    -0.03200
C1528       C  0.82136497  0.14694752  0.64754731     0.03600
N1529       N  0.83974725  0.14971115  0.61551616     0.66100
H1530       H  0.79454844  0.19332911  0.63622151     0.15000
H1531       H  0.80703679  0.09479886  0.71792349     0.14700
N1532       N  0.75594166  0.13622891  0.73558682     0.73800
O1533       O  0.82321105  0.14855287  0.58715226    -0.39600
O1534       O  0.87148383  0.15815577  0.61560473    -0.39500
O1535       O  0.72420922  0.12909509  0.73034254    -0.40300
O1536       O  0.76899847  0.13017025  0.76506641    -0.40300
C1537       C  0.70821269  0.15196413  0.81922621    -0.12600
C1538       C  0.68474206  0.17396812  0.80115677     0.04400
C1539       C  0.64906957  0.16251048  0.79985773    -0.07900
C1540       C  0.63840346  0.13195398  0.81718553    -0.08600
C1541       C  0.66155028  0.11018574  0.83485064    -0.03200
C1542       C  0.69727265  0.12010834  0.83532159     0.03600
N1543       N  0.72270681  0.09862859  0.85237166     0.66100
H1544       H  0.73539830  0.15946913  0.82076110     0.15000
H1545       H  0.61111309  0.12460973  0.81602323     0.14700
N1546       N  0.62243402  0.18065589  0.78093051     0.73800
O1547       O  0.75242988  0.09458753  0.83919405    -0.39600
O1548       O  0.71628225  0.08507267  0.88147533    -0.39500
O1549       O  0.60229162  0.16301425  0.76166155    -0.40300
O1550       O  0.61146299  0.20939221  0.79231596    -0.40300
C1551       C  0.90347931  0.34446291  0.83742411    -0.12600
C1552       C  0.90571620  0.37873451  0.85064913     0.04400
C1553       C  0.88011417  0.40326900  0.84108089    -0.07900
C1554       C  0.85448336  0.39374463  0.81747941    -0.08600
C1555       C  0.85289861  0.36005667  0.80292741    -0.03200
C1556       C  0.87764824  0.33492602  0.81328928     0.03600
N1557       N  0.87730322  0.30000318  0.79983672     0.66100
H1558       H  0.92321271  0.32547097  0.84435386     0.15000
H1559       H  0.83548622  0.41342797  0.81038776     0.14700
N1560       N  0.88094051  0.43876226  0.85286856     0.73800
O1561       O  0.88095259  0.29505796  0.76772948    -0.39600
O1562       O  0.88163546  0.27461875  0.82028747    -0.39500
O1563       O  0.88437790  0.46328902  0.83127127    -0.40300
O1564       O  0.87237446  0.44580207  0.88358163    -0.40300
C1565       C  0.84864697  0.25005312  0.68092670    -0.12600
C1566       C  0.83564066  0.23953446  0.71352962     0.04400
C1567       C  0.85486215  0.21315755  0.73113101    -0.07900
C1568       C  0.88626049  0.19972434  0.71655757    -0.08600
C1569       C  0.89920877  0.21135609  0.68425995    -0.03200
C1570       C  0.87951368  0.23670465  0.66633332     0.03600
N1571       N  0.89102163  0.25034673  0.63365644     0.66100
H1572       H  0.83511613  0.26978938  0.66664050     0.15000
H1573       H  0.90077613  0.18012050  0.73075388     0.14700
N1574       N  0.84297853  0.19921920  0.76340237     0.73800
O1575       O  0.86930406  0.25552056  0.60950638    -0.39600
O1576       O  0.92195939  0.26102001  0.63017119    -0.39500
O1577       O  0.84069589  0.16655265  0.76736226    -0.40300
O1578       O  0.84017533  0.21889708  0.78945722    -0.40300
C1579       C  0.77500690  0.37065098  0.86364827    -0.12600
C1580       C  0.77723973  0.33377219  0.86083879     0.04400
C1581       C  0.79747461  0.31599861  0.88596102    -0.07900
C1582       C  0.81348136  0.33521044  0.91332269    -0.08600
C1583       C  0.80997776  0.37190181  0.91625719    -0.03200
C1584       C  0.79073718  0.38960417  0.89063078     0.03600
N1585       N  0.78449209  0.42651361  0.89287160     0.66100
H1586       H  0.75968972  0.38536908  0.84508661     0.15000
H1587       H  0.82773735  0.32120571  0.93323643     0.14700
N1588       N  0.80074121  0.27870031  0.88528688     0.73800
O1589       O  0.78698728  0.44532456  0.86611937    -0.39600
O1590       O  0.77114496  0.43927705  0.91985819    -0.39500
O1591       O  0.82985557  0.26474232  0.89152427    -0.40300
O1592       O  0.77388831  0.25964707  0.88330178    -0.40300
C1593       C  0.67288760  0.24020816  0.95073679    -0.12600
C1594       C  0.65848586  0.20644356  0.95057643     0.04400
C1595       C  0.64967248  0.19070018  0.91855725    -0.07900
C1596       C  0.65275550  0.20995274  0.88794807    -0.08600
C1597       C  0.66502436  0.24454428  0.88815710    -0.03200
C1598       C  0.67574417  0.25960339  0.92008400     0.03600
N1599       N  0.68679862  0.29534709  0.92247386     0.66100
H1600       H  0.67920157  0.25286253  0.97512184     0.15000
H1601       H  0.64523903  0.19766737  0.86378472     0.14700
N1602       N  0.63678782  0.15549133  0.91670620     0.73800
O1603       O  0.66551017  0.31950615  0.91565834    -0.39600
O1604       O  0.71541675  0.30280010  0.93702381    -0.39500
O1605       O  0.61141612  0.14813158  0.89703095    -0.40300
O1606       O  0.65183815  0.13135234  0.93326575    -0.40300
C1607       C  0.64505625  0.44524002  0.17199101    -0.12600
C1608       C  0.67862669  0.44582180  0.18665615     0.04400
C1609       C  0.69485373  0.47840661  0.19337562    -0.07900
C1610       C  0.67700045  0.50931492  0.18544914    -0.08600
C1611       C  0.64389382  0.50837702  0.16974589    -0.03200
C1612       C  0.62747960  0.47599649  0.16385429     0.03600
N1613       N  0.59304626  0.47392094  0.14946232     0.66100
H1614       H  0.63226838  0.42064875  0.16661332     0.15000
H1615       H  0.69016062  0.53414073  0.18926739     0.14700
N1616       N  0.73031834  0.48070941  0.20514589     0.73800
O1617       O  0.58679858  0.45368666  0.12433940    -0.39600
O1618       O  0.56874068  0.49199669  0.16203290    -0.39500
O1619       O  0.75415412  0.46643274  0.18781577    -0.40300
O1620       O  0.73848123  0.50178215  0.22904836    -0.40300
C1621       C  0.79810691  0.45474817  0.33997309    -0.12600
C1622       C  0.77382847  0.47483299  0.35746452     0.04400
C1623       C  0.73802278  0.46632996  0.35417604    -0.07900
C1624       C  0.72778360  0.43741101  0.33349801    -0.08600
C1625       C  0.75238569  0.41840222  0.31423683    -0.03200
C1626       C  0.78788122  0.42846820  0.31718144     0.03600
N1627       N  0.81353316  0.41697000  0.29337381     0.66100
H1628       H  0.82541803  0.46215536  0.34075460     0.15000
H1629       H  0.70045724  0.43045434  0.33168039     0.14700
N1630       N  0.71199830  0.48673734  0.37134287     0.73800
O1631       O  0.83252823  0.39137940  0.30147216    -0.39600
O1632       O  0.82515201  0.43941066  0.27242567    -0.39500
O1633       O  0.68288041  0.49206315  0.35693005    -0.40300
O1634       O  0.71736738  0.49817505  0.40160681    -0.40300
C1635       C  0.82280037  0.38105265  0.43165937    -0.12600
C1636       C  0.79537567  0.39050072  0.45372537     0.04400
C1637       C  0.76108733  0.37953962  0.44518204    -0.07900
C1638       C  0.75541490  0.35920145  0.41513207    -0.08600
C1639       C  0.78312473  0.35024407  0.39325142    -0.03200
C1640       C  0.81725153  0.36084408  0.40211749     0.03600
N1641       N  0.84688339  0.34984231  0.38237471     0.66100
H1642       H  0.84942664  0.38802498  0.43815013     0.15000
H1643       H  0.72909686  0.35163914  0.40800587     0.14700
N1644       N  0.73176191  0.39009463  0.46549969     0.73800
O1645       O  0.87170835  0.37081758  0.37690484    -0.39600
O1646       O  0.85049210  0.31802909  0.37457665    -0.39500
O1647       O  0.72851151  0.42165368  0.47442111    -0.40300
O1648       O  0.70672066  0.36919791  0.47025940    -0.40300
C1649       C  0.62853647  0.29079706  0.37511740    -0.12600
C1650       C  0.65689819  0.27096885  0.36304973     0.04400
C1651       C  0.66160403  0.23717872  0.37733881    -0.07900
C1652       C  0.63936488  0.22412778  0.40254541    -0.08600
C1653       C  0.61244392  0.24416447  0.41560844    -0.03200
C1654       C  0.60649475  0.27768614  0.40146287     0.03600
N1655       N  0.57763125  0.29803550  0.41285963     0.66100
H1656       H  0.62337410  0.31630549  0.36409343     0.15000
H1657       H  0.64496763  0.19880736  0.41392624     0.14700
N1658       N  0.69069570  0.21628217  0.36875707     0.73800
O1659       O  0.58267683  0.32749870  0.42672184    -0.39600
O1660       O  0.54697634  0.28810688  0.40593792    -0.39500
O1661       O  0.71678849  0.21713134  0.38876472    -0.40300
O1662       O  0.68612045  0.19046558  0.34887969    -0.40300
C1663       C  0.63301473  0.15700657  0.18056568    -0.12600
C1664       C  0.66332804  0.15761348  0.20109929     0.04400
C1665       C  0.68480237  0.12780570  0.20169218    -0.07900
C1666       C  0.67533372  0.09815303  0.18212701    -0.08600
C1667       C  0.64444921  0.09752840  0.16203855    -0.03200
C1668       C  0.62341214  0.12785828  0.16137696     0.03600
N1669       N  0.59139691  0.12959731  0.14230793     0.66100
H1670       H  0.61577328  0.17936913  0.17963216     0.15000
H1671       H  0.69198349  0.07537671  0.18319878     0.14700
N1672       N  0.71634494  0.12732205  0.22152981     0.73800
O1673       O  0.56288675  0.12518059  0.15784346    -0.39600
O1674       O  0.59129227  0.14163662  0.11187935    -0.39500
O1675       O  0.71618965  0.11578910  0.25216326    -0.40300
O1676       O  0.74493567  0.13432849  0.20712532    -0.40300
C1677       C  0.81044412  0.16877610  0.25567657    -0.12600
C1678       C  0.79087994  0.18742207  0.28025803     0.04400
C1679       C  0.79569599  0.17880703  0.31574360    -0.07900
C1680       C  0.82004021  0.15390992  0.32575855    -0.08600
C1681       C  0.83747099  0.13372396  0.30151256    -0.03200
C1682       C  0.83284459  0.14125997  0.26583977     0.03600
N1683       N  0.85051131  0.12132907  0.23984885     0.66100
H1684       H  0.80759225  0.17492723  0.22840582     0.15000
H1685       H  0.82200006  0.14747289  0.35308567     0.14700
N1686       N  0.77263538  0.19032196  0.34203305     0.73800
O1687       O  0.83560742  0.11453425  0.21136139    -0.39600
O1688       O  0.88181404  0.11231720  0.24437121    -0.39500
O1689       O  0.75103045  0.16807491  0.35296858    -0.40300
O1690       O  0.78304906  0.21374377  0.36267297    -0.40300
C1691       C  0.79558191  0.39128992  0.10542826    -0.12600
C1692       C  0.77333174  0.36216750  0.10691498     0.04400
C1693       C  0.76664539  0.34326110  0.07607559    -0.07900
C1694       C  0.78170153  0.35417787  0.04476726    -0.08600
C1695       C  0.80314383  0.38407364  0.04320804    -0.03200
C1696       C  0.80973478  0.40283959  0.07432642     0.03600
N1697       N  0.82876361  0.43507943  0.07494669     0.66100
H1698       H  0.80077004  0.40677991  0.12841102     0.15000
H1699       H  0.77613632  0.33929007  0.02148832     0.14700
N1700       N  0.74460565  0.31307098  0.07592901     0.73800
O1701       O  0.81359842  0.46291923  0.06603539    -0.39600
O1702       O  0.85697106  0.43700725  0.09179204    -0.39500
O1703       O  0.71600001  0.31355438  0.05963478    -0.40300
O1704       O  0.75541579  0.28481060  0.08886307    -0.40300
C1705       C  0.69701808  0.19974171  0.08554130    -0.12600
C1706       C  0.66168320  0.20488223  0.07720927     0.04400
C1707       C  0.64119507  0.22605443  0.09875545    -0.07900
C1708       C  0.65649517  0.24194279  0.12767795    -0.08600
C1709       C  0.69214355  0.23788690  0.13591478    -0.03200
C1710       C  0.71231517  0.21524364  0.11515972     0.03600
N1711       N  0.74789641  0.20746220  0.12358639     0.66100
H1712       H  0.71267359  0.18314731  0.06910688     0.15000
H1713       H  0.64022847  0.25877901  0.14325057     0.14700
N1714       N  0.60547528  0.23376397  0.09045872     0.73800
O1715       O  0.75534234  0.19460711  0.15282251    -0.39600
O1716       O  0.77036406  0.20648605  0.09986615    -0.39500
O1717       O  0.58314465  0.23526948  0.11428141    -0.40300
O1718       O  0.59725313  0.24418631  0.06046252    -0.40300
C1719       C  0.07828956  0.36519217  0.15522229    -0.12600
C1720       C  0.07583429  0.35504813  0.19011451     0.04400
C1721       C  0.04286372  0.34489141  0.20311143    -0.07900
C1722       C  0.01335133  0.34687615  0.18144210    -0.08600
C1723       C  0.01586113  0.35952453  0.14733893    -0.03200
C1724       C  0.04896764  0.36707004  0.13372540     0.03600
N1725       N  0.05306765  0.37777744  0.09837355     0.66100
H1726       H  0.10324341  0.37201125  0.14443316     0.15000
H1727       H  0.98796646  0.34144277  0.19236662     0.14700
N1728       N  0.03820858  0.33533871  0.23872725     0.73800
O1729       O  0.07160595  0.40405989  0.09122145    -0.39600
O1730       O  0.03824780  0.36100653  0.07422088    -0.39500
O1731       O  0.04626043  0.35670800  0.26240740    -0.40300
O1732       O  0.02056366  0.30852472  0.24625745    -0.40300
C1733       C  0.87263948  0.38060054  0.16040210    -0.12600
C1734       C  0.88974717  0.35808023  0.13805838     0.04400
C1735       C  0.88024335  0.32227692  0.13787623    -0.07900
C1736       C  0.85381563  0.31003734  0.16032697    -0.08600
C1737       C  0.83790357  0.33262118  0.18426418    -0.03200
C1738       C  0.84840836  0.36819297  0.18414753     0.03600
N1739       N  0.83909506  0.39132887  0.21126440     0.66100
H1740       H  0.88097156  0.40766744  0.16228911     0.15000
H1741       H  0.84625314  0.28274867  0.15948821     0.14700
N1742       N  0.89735516  0.29818705  0.11529621     0.73800
O1743       O  0.86130217  0.39638597  0.23497856    -0.39600
O1744       O  0.81598999  0.41404354  0.20565873    -0.39500
O1745       O  0.90714929  0.26880746  0.12650818    -0.40300
O1746       O  0.90135948  0.30558382  0.08368632    -0.40300
C1747       C  0.10887133  0.23376592  0.31361475    -0.12600
C1748       C  0.10852726  0.23707540  0.27702820     0.04400
C1749       C  0.08042290  0.22162745  0.25867486    -0.07900
C1750       C  0.05338049  0.20492671  0.27756943    -0.08600
C1751       C  0.05355805  0.20357509  0.31428557    -0.03200
C1752       C  0.08230409  0.21758393  0.33212700     0.03600
N1753       N  0.08315216  0.21972756  0.36923788     0.66100
H1754       H  0.12885174  0.24649393  0.32896986     0.15000
H1755       H  0.03097224  0.19474883  0.26360116     0.14700
N1756       N  0.07727068  0.22477948  0.22170481     0.73800
O1757       O  0.10993633  0.20983145  0.38557123    -0.39600
O1758       O  0.06070165  0.23782805  0.38479895    -0.39500
O1759       O  0.06403665  0.20013470  0.20423484    -0.40300
O1760       O  0.08321495  0.25364454  0.20700738    -0.40300
C1761       C  0.92393225  0.23409773  0.29722250    -0.12600
C1762       C  0.92822720  0.22040916  0.33088268     0.04400
C1763       C  0.90062087  0.22395128  0.35483813    -0.07900
C1764       C  0.87001817  0.24028110  0.34481158    -0.08600
C1765       C  0.86573771  0.25418042  0.31153251    -0.03200
C1766       C  0.89280058  0.25067373  0.28722556     0.03600
N1767       N  0.88850144  0.26223515  0.25213544     0.66100
H1768       H  0.94448685  0.23125595  0.27833865     0.15000
H1769       H  0.84977705  0.24323840  0.36403472     0.14700
N1770       N  0.90350309  0.21286510  0.39016573     0.73800
O1771       O  0.91184725  0.28050176  0.23795546    -0.39600
O1772       O  0.86330300  0.25096621  0.23410379    -0.39500
O1773       O  0.92017479  0.23149318  0.41163297    -0.40300
O1774       O  0.88442808  0.18832874  0.40105142    -0.40300
C1775       C  0.37454976  0.81730895  0.31820283    -0.12600
C1776       C  0.34964627  0.84168495  0.30627999     0.04400
C1777       C  0.35904965  0.87766144  0.30808175    -0.07900
C1778       C  0.39086766  0.88829173  0.32277630    -0.08600
C1779       C  0.41556765  0.86432549  0.33493960    -0.03200
C1780       C  0.40740741  0.82820848  0.33194492     0.03600
N1781       N  0.43184828  0.80230523  0.34308264     0.66100
H1782       H  0.36865228  0.78964916  0.31660134     0.15000
H1783       H  0.39669487  0.91602260  0.32372524     0.14700
N1784       N  0.33698767  0.90428893  0.29428995     0.73800
O1785       O  0.44376372  0.80279591  0.37364482    -0.39600
O1786       O  0.44023928  0.77781333  0.32291341    -0.39500
O1787       O  0.32046364  0.92383283  0.31470783    -0.40300
O1788       O  0.34139693  0.91393858  0.26336925    -0.40300
C1789       C  0.40010114  0.74319970  0.14384507    -0.12600
C1790       C  0.40876699  0.71659226  0.16716800     0.04400
C1791       C  0.39922983  0.71908056  0.20230051    -0.07900
C1792       C  0.38008568  0.74803645  0.21315139    -0.08600
C1793       C  0.37085332  0.77409740  0.18941335    -0.03200
C1794       C  0.38196291  0.77222436  0.15490701     0.03600
N1795       N  0.37329807  0.79898150  0.13046606     0.66100
H1796       H  0.40920982  0.74245483  0.11729896     0.15000
H1797       H  0.36991162  0.74878427  0.23929466     0.14700
N1798       N  0.40837368  0.69226583  0.22675251     0.73800
O1799       O  0.39554005  0.82223445  0.12344111    -0.39600
O1800       O  0.34662319  0.79564008  0.11144947    -0.39500
O1801       O  0.41457895  0.69997912  0.25800653    -0.40300
O1802       O  0.40835409  0.66056009  0.21767424    -0.40300
C1803       C  0.15585469  0.72916973  0.35764939    -0.12600
C1804       C  0.19214216  0.73593564  0.35965308     0.04400
C1805       C  0.20946665  0.72639385  0.39063811    -0.07900
C1806       C  0.18977198  0.71314281  0.41893052    -0.08600
C1807       C  0.15310050  0.70831203  0.41700222    -0.03200
C1808       C  0.13647166  0.71574197  0.38526898     0.03600
N1809       N  0.09932886  0.71384063  0.38152273     0.66100
H1810       H  0.14114743  0.73745911  0.33521846     0.15000
H1811       H  0.20321903  0.70714818  0.44295570     0.14700
N1812       N  0.24629188  0.73161985  0.39461308     0.73800
O1813       O  0.08032025  0.73356660  0.39949868    -0.39600
O1814       O  0.08615881  0.69822949  0.35574427    -0.39500
O1815       O  0.25869944  0.74216535  0.42314725    -0.40300
O1816       O  0.26679720  0.72138407  0.37131504    -0.40300
C1817       C  0.31060514  0.86701277  0.39222908    -0.12600
C1818       C  0.27555836  0.85646081  0.39409094     0.04400
C1819       C  0.26169308  0.84695010  0.42664356    -0.07900
C1820       C  0.28275390  0.84976570  0.45640103    -0.08600
C1821       C  0.31702512  0.86273166  0.45445150    -0.03200
C1822       C  0.33148282  0.86987593  0.42177890     0.03600
N1823       N  0.36708270  0.88082134  0.41826982     0.66100
H1824       H  0.32201928  0.87332326  0.36752810     0.15000
H1825       H  0.27120844  0.84465114  0.48145665     0.14700
N1826       N  0.22579236  0.83730298  0.43052739     0.73800
O1827       O  0.37466213  0.90648154  0.39917236    -0.39600
O1828       O  0.39112660  0.86437187  0.43357666    -0.39500
O1829       O  0.20216748  0.85814901  0.42105493    -0.40300
O1830       O  0.21776491  0.81107505  0.44867917    -0.40300
C1831       C  0.08412081  0.88553347  0.26015572    -0.12600
C1832       C  0.10599812  0.86511992  0.28146185     0.04400
C1833       C  0.09620928  0.86155140  0.31697588    -0.07900
C1834       C  0.06661004  0.87871267  0.33003117    -0.08600
C1835       C  0.04419860  0.89797417  0.30863222    -0.03200
C1836       C  0.05325165  0.90138741  0.27305096     0.03600
N1837       N  0.03170612  0.92118282  0.24971296     0.66100
H1838       H  0.09084231  0.88891670  0.23314520     0.15000
H1839       H  0.05976326  0.87485687  0.35697489     0.14700
N1840       N  0.11475725  0.83894013  0.34015935     0.73800
O1841       O  0.01824123  0.94958294  0.25938993    -0.39600
O1842       O  0.02825593  0.91174791  0.21852161    -0.39500
O1843       O  0.12724979  0.85111750  0.36799554    -0.40300
O1844       O  0.11105239  0.80628302  0.33714111    -0.40300
C1845       C  0.09594666  0.71216095  0.16970599    -0.12600
C1846       C  0.09649095  0.74507212  0.18587515     0.04400
C1847       C  0.07064111  0.76959640  0.17754433    -0.07900
C1848       C  0.04403329  0.76013319  0.15448125    -0.08600
C1849       C  0.04196381  0.72595637  0.14088552    -0.03200
C1850       C  0.06885722  0.70202448  0.14818478     0.03600
N1851       N  0.06721087  0.66605680  0.13796608     0.66100
H1852       H  0.11582108  0.69291541  0.17517580     0.15000
H1853       H  0.02354657  0.77882775  0.14912678     0.14700
N1854       N  0.07039638  0.80356980  0.19293442     0.73800
O1855       O  0.09046480  0.65390680  0.11845844    -0.39600
O1856       O  0.04857475  0.64513391  0.15514660    -0.39500
O1857       O  0.08174412  0.82950485  0.17621160    -0.40300
O1858       O  0.05505219  0.80830185  0.22137041    -0.40300
C1859       C  0.13993496  0.79022823  0.11366979    -0.12600
C1860       C  0.16517018  0.77225427  0.13327281     0.04400
C1861       C  0.17011772  0.73586702  0.12568226    -0.07900
C1862       C  0.14972467  0.71893024  0.10065795    -0.08600
C1863       C  0.12579222  0.73694896  0.08032588    -0.03200
C1864       C  0.12080877  0.77319105  0.08679576     0.03600
N1865       N  0.09650937  0.79296112  0.06635638     0.66100
H1866       H  0.13536915  0.81762747  0.11891970     0.15000
H1867       H  0.15493372  0.69167599  0.09502958     0.14700
N1868       N  0.19707835  0.71546682  0.14164864     0.73800
O1869       O  0.06766209  0.77969708  0.05741905    -0.39600
O1870       O  0.10285165  0.82448234  0.05896716    -0.39500
O1871       O  0.18917899  0.68781940  0.15767843    -0.40300
O1872       O  0.22826916  0.72015045  0.13250974    -0.40300
C1873       C  0.30404859  0.91923530  0.07648381    -0.12600
C1874       C  0.28326507  0.91064019  0.04755402     0.04400
C1875       C  0.25820198  0.88370451  0.05114440    -0.07900
C1876       C  0.25679208  0.86425405  0.08206033    -0.08600
C1877       C  0.27976952  0.87112388  0.10982634    -0.03200
C1878       C  0.30376010  0.89922150  0.10669025     0.03600
N1879       N  0.33026936  0.90610698  0.13229393     0.66100
H1880       H  0.32323562  0.93998057  0.07479105     0.15000
H1881       H  0.23752971  0.84361870  0.08430129     0.14700
N1882       N  0.23422175  0.87548941  0.02378526     0.73800
O1883       O  0.35136642  0.88225652  0.14058958    -0.39600
O1884       O  0.33755295  0.93724876  0.14042254    -0.39500
O1885       O  0.23150338  0.84446495  0.01300387    -0.40300
O1886       O  0.21260735  0.89813455  0.01365030    -0.40300
C1887       C  0.23488802  0.16562475  0.16956416    -0.12600
C1888       C  0.25731528  0.19123575  0.18380166     0.04400
C1889       C  0.29383713  0.18401716  0.18254693    -0.07900
C1890       C  0.30643158  0.15258472  0.16797366    -0.08600
C1891       C  0.28404177  0.12623360  0.15568393    -0.03200
C1892       C  0.24770091  0.13337046  0.15637111     0.03600
N1893       N  0.22329410  0.10834978  0.14317996     0.66100
H1894       H  0.20703491  0.17002055  0.16981977     0.15000
H1895       H  0.33427376  0.14801259  0.16801447     0.14700
N1896       N  0.31903988  0.20780471  0.19672936     0.73800
O1897       O  0.21228538  0.08429419  0.16266336    -0.39600
O1898       O  0.20817662  0.11396350  0.11459573    -0.39500
O1899       O  0.32379305  0.20856567  0.22911903    -0.40300
O1900       O  0.34246738  0.21994157  0.17728457    -0.40300
C1901       C  0.25261204  0.97973022  0.14912330    -0.12600
C1902       C  0.28254923  0.99627081  0.16309839     0.04400
C1903       C  0.29609953  0.98298879  0.19447306    -0.07900
C1904       C  0.28040658  0.95391852  0.21067078    -0.08600
C1905       C  0.25144929  0.93603003  0.19628728    -0.03200
C1906       C  0.23701449  0.95003284  0.16529411     0.03600
N1907       N  0.20645900  0.93481912  0.15004650     0.66100
H1908       H  0.24105174  0.99011489  0.12562199     0.15000
H1909       H  0.29167568  0.94476624  0.23470387     0.14700
N1910       N  0.32616691  0.99867837  0.21028491     0.73800
O1911       O  0.20610344  0.92690432  0.11829811    -0.39600
O1912       O  0.17834176  0.93428152  0.16682149    -0.39500
O1913       O  0.32471437  0.00970592  0.24106039    -0.40300
O1914       O  0.35520519  0.99751111  0.19518752    -0.40300
C1915       C  0.16988350  0.15889458  0.34111236    -0.12600
C1916       C  0.17358949  0.16640900  0.30574017     0.04400
C1917       C  0.15694063  0.14525802  0.28084822    -0.07900
C1918       C  0.13486405  0.11838801  0.29203346    -0.08600
C1919       C  0.12966053  0.11226370  0.32761314    -0.03200
C1920       C  0.14883577  0.13165188  0.35230169     0.03600
N1921       N  0.14936535  0.12248352  0.38838341     0.66100
H1922       H  0.18396709  0.17418692  0.36033095     0.15000
H1923       H  0.12135163  0.10253988  0.27289231     0.14700
N1924       N  0.16148053  0.15110871  0.24451476     0.73800
O1925       O  0.15900278  0.09230682  0.39747471    -0.39600
O1926       O  0.14630144  0.14593964  0.41114752    -0.39500
O1927       O  0.17292547  0.12690933  0.22556066    -0.40300
O1928       O  0.15124432  0.17921563  0.23079909    -0.40300
C1929       C  0.12473402  0.96821571  0.35055632    -0.12600
C1930       C  0.11436117  0.99022664  0.32335859     0.04400
C1931       C  0.13061097  0.98733218  0.29070302    -0.07900
C1932       C  0.15823974  0.96397653  0.28667733    -0.08600
C1933       C  0.16986633  0.94399010  0.31479331    -0.03200
C1934       C  0.15354648  0.94680653  0.34732045     0.03600
N1935       N  0.16710274  0.92940179  0.37765298     0.66100
H1936       H  0.11328499  0.97068623  0.37601154     0.15000
H1937       H  0.16987640  0.96058781  0.26137913     0.14700
N1938       N  0.11967100  0.00832714  0.26184255     0.73800
O1939       O  0.19959862  0.92680486  0.38220273    -0.39600
O1940       O  0.14699012  0.92062862  0.40194130    -0.39500
O1941       O  0.14196395  0.02224344  0.24222658    -0.40300
O1942       O  0.08766189  0.01201026  0.25515950    -0.40300
C1943       C  0.27817695  0.41651108  0.81339478    -0.12600
C1944       C  0.27925713  0.41627461  0.77664768     0.04400
C1945       C  0.29991704  0.44195535  0.76025072    -0.07900
C1946       C  0.31760261  0.46724840  0.78085203    -0.08600
C1947       C  0.31518087  0.46768282  0.81748347    -0.03200
C1948       C  0.29566777  0.44132411  0.83368795     0.03600
N1949       N  0.29046158  0.44100215  0.87049876     0.66100
H1950       H  0.26230506  0.39768562  0.82710385     0.15000
H1951       H  0.33173650  0.48807863  0.76804884     0.14700
N1952       N  0.30129919  0.44453954  0.72318071     0.73800
O1953       O  0.27697944  0.46707409  0.88523110    -0.39600
O1954       O  0.29303540  0.41263027  0.88699380    -0.39500
O1955       O  0.27363086  0.44290358  0.70538659    -0.40300
O1956       O  0.32926294  0.45360387  0.70862675    -0.40300
C1957       C  0.18250965  0.47222660  0.68956782    -0.12600
C1958       C  0.15930400  0.44420368  0.68441453     0.04400
C1959       C  0.13342440  0.44697996  0.65818605    -0.07900
C1960       C  0.13131726  0.47717067  0.63828898    -0.08600
C1961       C  0.15272732  0.50623914  0.64501727    -0.03200
C1962       C  0.17959092  0.50307747  0.67013452     0.03600
N1963       N  0.20389057  0.53083302  0.67653465     0.66100
H1964       H  0.20305680  0.47028984  0.70884830     0.15000
H1965       H  0.11063083  0.47856855  0.61911113     0.14700
N1966       N  0.10711518  0.42075190  0.65302207     0.73800
O1967       O  0.20758507  0.54301240  0.70673835    -0.39600
O1968       O  0.22436826  0.54048254  0.65290145    -0.39500
O1969       O  0.08437668  0.41585211  0.67603281    -0.40300
O1970       O  0.10269787  0.40741970  0.62339297    -0.40300
C1971       C  0.33818764  0.23402178  0.67848009    -0.12600
C1972       C  0.33231184  0.27052155  0.67814516     0.04400
C1973       C  0.35828861  0.29173570  0.66232376    -0.07900
C1974       C  0.39027560  0.27642374  0.65157329    -0.08600
C1975       C  0.39634721  0.24006559  0.65347253    -0.03200
C1976       C  0.36909575  0.21885941  0.66607009     0.03600
N1977       N  0.37306265  0.18179221  0.66842297     0.66100
H1978       H  0.31876507  0.21671290  0.68944535     0.15000
H1979       H  0.41035229  0.29299812  0.64069145     0.14700
N1980       N  0.35286750  0.32840392  0.65641301     0.73800
O1981       O  0.39336313  0.16886348  0.69081667    -0.39600
O1982       O  0.35354866  0.16193427  0.65075446    -0.39500
O1983       O  0.37845746  0.34921476  0.65728637    -0.40300
O1984       O  0.32467437  0.33868171  0.64293007    -0.40300
C1985       C  0.35891922  0.35881360  0.84047977    -0.12600
C1986       C  0.35484936  0.35303033  0.80478293     0.04400
C1987       C  0.37756067  0.36922798  0.78124485    -0.07900
C1988       C  0.40336913  0.39178200  0.79401551    -0.08600
C1989       C  0.40740306  0.39740922  0.82982219    -0.03200
C1990       C  0.38491892  0.38051972  0.85319868     0.03600
N1991       N  0.38973091  0.38280885  0.88992555     0.66100
H1992       H  0.34166134  0.34616926  0.85881930     0.15000
H1993       H  0.42132918  0.40384703  0.77600950     0.14700
N1994       N  0.37495101  0.36307609  0.74472228     0.73800
O1995       O  0.37041060  0.40251161  0.90755384    -0.39600
O1996       O  0.40972330  0.36157502  0.90515172    -0.39500
O1997       O  0.37706820  0.38842343  0.72390720    -0.40300
O1998       O  0.37783393  0.33234431  0.73326347    -0.40300
C1999       C  0.25563510  0.14053525  0.84561004    -0.12600
C2000       C  0.29069399  0.13436572  0.83639728     0.04400
C2001       C  0.30569893  0.15505708  0.81058086    -0.07900
C2002       C  0.28605536  0.18094616  0.79435965    -0.08600
C2003       C  0.25090837  0.18788336  0.80323976    -0.03200
C2004       C  0.23571446  0.16723858  0.82944490     0.03600
N2005       N  0.20022169  0.17223858  0.83921356     0.66100
H2006       H  0.24344293  0.12394108  0.86481004     0.15000
H2007       H  0.29911506  0.19586314  0.77439594     0.14700
N2008       N  0.34053956  0.14895249  0.79916801     0.73800
O2009       O  0.19268336  0.17753963  0.87055390    -0.39600
O2010       O  0.17612613  0.16752301  0.81727453    -0.39500
O2011       O  0.34669156  0.12378654  0.77900012    -0.40300
O2012       O  0.36385199  0.17163445  0.80474706    -0.40300
C2013       C  0.11017839  0.12749278  0.66592600    -0.12600
C2014       C  0.11954069  0.09764341  0.68490840     0.04400
C2015       C  0.14836301  0.09987432  0.70799890    -0.07900
C2016       C  0.16810099  0.13087386  0.70958313    -0.08600
C2017       C  0.16019931  0.15961025  0.68829304    -0.03200
C2018       C  0.13085164  0.15738971  0.66580197     0.03600
N2019       N  0.12305673  0.18367433  0.64034640     0.66100
H2020       H  0.08816390  0.12675814  0.64822147     0.15000
H2021       H  0.18993345  0.13231283  0.72747293     0.14700
N2022       N  0.15849629  0.07107923  0.72951225     0.73800
O2023       O  0.14466464  0.18979213  0.61655292    -0.39600
O2024       O  0.09217109  0.19431582  0.63673882    -0.39500
O2025       O  0.19011782  0.06229540  0.73129943    -0.40300
O2026       O  0.13724635  0.05863665  0.75111981    -0.40300
C2027       C  0.04678699  0.19958941  0.71372824    -0.12600
C2028       C  0.02834848  0.21593111  0.68655564     0.04400
C2029       C  0.04109016  0.24797096  0.67379034    -0.07900
C2030       C  0.07178524  0.26264385  0.68761287    -0.08600
C2031       C  0.09121693  0.24612357  0.71410984    -0.03200
C2032       C  0.07780654  0.21437954  0.72783149     0.03600
N2033       N  0.09526021  0.19655167  0.75557407     0.66100
H2034       H  0.03694818  0.17521675  0.72415105     0.15000
H2035       H  0.08093788  0.28709816  0.67676280     0.14700
N2036       N  0.02343297  0.26573997  0.64617219     0.73800
O2037       O  0.09992334  0.21184078  0.78422080    -0.39600
O2038       O  0.09963159  0.16391863  0.75389824    -0.39500
O2039       O  0.01364824  0.29692001  0.65019832    -0.40300
O2040       O  0.02171088  0.25200819  0.61646672    -0.40300
C2041       C  0.06540402  0.39902872  0.79138217    -0.12600
C2042       C  0.07444664  0.36414739  0.78610321     0.04400
C2043       C  0.05967481  0.33758319  0.80657055    -0.07900
C2044       C  0.03623138  0.34664391  0.83256752    -0.08600
C2045       C  0.02797268  0.38176819  0.83835936    -0.03200
C2046       C  0.04257932  0.40812439  0.81737411     0.03600
N2047       N  0.03371958  0.44417352  0.82138089     0.66100
H2048       H  0.07734503  0.41954525  0.77603872     0.15000
H2049       H  0.02419500  0.32632248  0.84802992     0.14700
N2050       N  0.06902625  0.30174695  0.80195204     0.73800
O2051       O  0.05442834  0.46459147  0.83695387    -0.39600
O2052       O  0.00753853  0.45640920  0.80567294    -0.39500
O2053       O  0.07922795  0.28388345  0.82754832    -0.40300
O2054       O  0.06150422  0.28656750  0.77386857    -0.40300
C2055       C  0.26242504  0.25140359  0.09179734    -0.12600
C2056       C  0.28835194  0.27183366  0.10736332     0.04400
C2057       C  0.32383556  0.26639899  0.10014404    -0.07900
C2058       C  0.33282828  0.23900875  0.07852747    -0.08600
C2059       C  0.30704118  0.21856956  0.06261115    -0.03200
C2060       C  0.27149158  0.22454484  0.06925749     0.03600
N2061       N  0.24471062  0.20348917  0.05340906     0.66100
H2062       H  0.23538377  0.25491135  0.09893861     0.15000
H2063       H  0.35997892  0.23555312  0.07180921     0.14700
N2064       N  0.35072947  0.28840997  0.11481204     0.73800
O2065       O  0.24932746  0.17115425  0.04890105    -0.39600
O2066       O  0.21563053  0.21673931  0.04559352    -0.39500
O2067       O  0.38127345  0.27691560  0.11889663    -0.40300
O2068       O  0.34485867  0.32026431  0.12093537    -0.40300
C2069       C  0.28519360  0.25497095  0.94357443    -0.12600
C2070       C  0.30239423  0.22266412  0.94025136     0.04400
C2071       C  0.30679310  0.20794769  0.90746372    -0.07900
C2072       C  0.29522988  0.22595927  0.87849230    -0.08600
C2073       C  0.27890651  0.25864105  0.88128217    -0.03200
C2074       C  0.27404097  0.27352154  0.91429416     0.03600
N2075       N  0.26124237  0.30844482  0.91839130     0.66100
H2076       H  0.28252080  0.26700841  0.96883728     0.15000
H2077       H  0.29981468  0.21442277  0.85347395     0.14700
N2078       N  0.32372700  0.17509502  0.90310776     0.73800
O2079       O  0.23822519  0.31481072  0.94070436    -0.39600
O2080       O  0.27694580  0.33359924  0.90408528    -0.39500
O2081       O  0.31285630  0.14840068  0.91902817    -0.40300
O2082       O  0.35139621  0.17350183  0.88572348    -0.40300
C2083       C  0.15418547  0.31534594  0.09733798    -0.12600
C2084       C  0.16688650  0.33967928  0.12185290     0.04400
C2085       C  0.16525466  0.37566136  0.11247474    -0.07900
C2086       C  0.15044218  0.38622600  0.08080632    -0.08600
C2087       C  0.13748852  0.36226713  0.05642612    -0.03200
C2088       C  0.13986423  0.32613312  0.06486673     0.03600
N2089       N  0.12655477  0.30008761  0.04162593     0.66100
H2090       H  0.15518024  0.28774313  0.10347501     0.15000
H2091       H  0.14967122  0.41393626  0.07501386     0.14700
N2092       N  0.17845738  0.40246575  0.13478965     0.73800
O2093       O  0.14341430  0.27228037  0.03668037    -0.39600
O2094       O  0.09572066  0.30235907  0.03036831    -0.39500
O2095       O  0.20954605  0.41241936  0.13109514    -0.40300
O2096       O  0.15736824  0.42225401  0.15018096    -0.40300
C2097       C  0.14672101  0.31374571  0.88693973    -0.12600
C2098       C  0.15571321  0.33714254  0.86021299     0.04400
C2099       C  0.15069968  0.37351341  0.86705321    -0.07900
C2100       C  0.13708572  0.38497406  0.89898942    -0.08600
C2101       C  0.12932807  0.36189607  0.92612964    -0.03200
C2102       C  0.13397399  0.32555055  0.91953908     0.03600
N2103       N  0.12462908  0.30007407  0.94505522     0.66100
H2104       H  0.15004444  0.28597968  0.88267212     0.15000
H2105       H  0.13424214  0.41282589  0.90315089     0.14700
N2106       N  0.16000946  0.39989507  0.84241249     0.73800
O2107       O  0.09473997  0.30091591  0.95841976    -0.39600
O2108       O  0.14366843  0.27367630  0.94997265    -0.39500
O2109       O  0.13744832  0.42211691  0.83345348    -0.40300
O2110       O  0.19176815  0.40729933  0.83828320    -0.40300
C2111       C  0.56131521  0.40898946  0.22481175    -0.12600
C2112       C  0.55095686  0.40341425  0.19021721     0.04400
C2113       C  0.56931969  0.37959805  0.16970609    -0.07900
C2114       C  0.59746011  0.36180372  0.18398357    -0.08600
C2115       C  0.60833015  0.36691858  0.21869891    -0.03200
C2116       C  0.59035516  0.39160000  0.23910932     0.03600
N2117       N  0.60099603  0.39948946  0.27391884     0.66100
H2118       H  0.54693618  0.42727791  0.24063248     0.15000
H2119       H  0.61055101  0.34323315  0.16740238     0.14700
N2120       N  0.55854909  0.37154771  0.13492136     0.73800
O2121       O  0.63125097  0.41123656  0.27967843    -0.39600
O2122       O  0.57844988  0.40145994  0.29749912    -0.39500
O2123       O  0.58057368  0.37184825  0.11077468    -0.40300
O2124       O  0.52848836  0.35927124  0.12920147    -0.40300
C2125       C  0.36239522  0.40227744  0.18931402    -0.12600
C2126       C  0.36301891  0.36758955  0.20114025     0.04400
C2127       C  0.39525481  0.35270999  0.21101203    -0.07900
C2128       C  0.42590985  0.37209539  0.20713092    -0.08600
C2129       C  0.42521449  0.40579151  0.19269588    -0.03200
C2130       C  0.39296380  0.42158110  0.18537047     0.03600
N2131       N  0.39094060  0.45660580  0.17239145     0.66100
H2132       H  0.33808031  0.41438822  0.18219327     0.15000
H2133       H  0.45056199  0.35939857  0.21245737     0.14700
N2134       N  0.39788814  0.31695627  0.22156119     0.73800
O2135       O  0.37245756  0.46319023  0.14606081    -0.39600
O2136       O  0.40756798  0.48100748  0.18714601    -0.39500
O2137       O  0.39584139  0.29299016  0.19915058    -0.40300
O2138       O  0.40745519  0.30962414  0.25204208    -0.40300
C2139       C  0.57842532  0.21006965  0.31908048    -0.12600
C2140       C  0.58023661  0.23967625  0.29777452     0.04400
C2141       C  0.55019102  0.26057242  0.29386850    -0.07900
C2142       C  0.51905922  0.25091897  0.31047828    -0.08600
C2143       C  0.51709489  0.22054544  0.33106754    -0.03200
C2144       C  0.54764387  0.20008238  0.33516063     0.03600
N2145       N  0.54796593  0.16797950  0.35416106     0.66100
H2146       H  0.60091410  0.19333180  0.32244883     0.15000
H2147       H  0.49631582  0.26725803  0.30702611     0.14700
N2148       N  0.55097605  0.29196125  0.27381109     0.73800
O2149       O  0.53920185  0.13999297  0.33907419    -0.39600
O2150       O  0.56403207  0.16642519  0.38273632    -0.39500
O2151       O  0.53499336  0.29341331  0.24517009    -0.40300
O2152       O  0.56470789  0.31924099  0.28629309    -0.40300
C2153       C  0.33379877  0.23801970  0.31702956    -0.12600
C2154       C  0.33345207  0.27503716  0.31526433     0.04400
C2155       C  0.36179603  0.29314159  0.33077934    -0.07900
C2156       C  0.38975563  0.27366742  0.34561550    -0.08600
C2157       C  0.39025985  0.23661082  0.34541036    -0.03200
C2158       C  0.36126399  0.21893809  0.33147909     0.03600
N2159       N  0.36067025  0.18157638  0.32817683     0.66100
H2160       H  0.31342225  0.22293539  0.30456614     0.15000
H2161       H  0.41211978  0.28759184  0.35599132     0.14700
N2162       N  0.36394841  0.33063361  0.33016463     0.73800
O2163       O  0.33359429  0.16475108  0.33631697    -0.39600
O2164       O  0.38408148  0.16637277  0.31105798    -0.39500
O2165       O  0.37799024  0.34678248  0.35516818    -0.40300
O2166       O  0.35562772  0.34744367  0.30323359    -0.40300
C2167       C  0.30442451  0.49115050  0.22576585    -0.12600
C2168       C  0.30346636  0.49716576  0.18953422     0.04400
C2169       C  0.28774769  0.47120174  0.16854715    -0.07900
C2170       C  0.27424773  0.44055256  0.18360090    -0.08600
C2171       C  0.27505321  0.43398005  0.21964570    -0.03200
C2172       C  0.29108021  0.45978832  0.24088252     0.03600
N2173       N  0.29426060  0.45476642  0.27754464     0.66100
H2174       H  0.31659020  0.51052085  0.24240597     0.15000
H2175       H  0.26305870  0.42124708  0.16639221     0.14700
N2176       N  0.28387548  0.47597838  0.13181761     0.73800
O2177       O  0.31072410  0.42874777  0.28917849    -0.39600
O2178       O  0.28609843  0.47910186  0.29798355    -0.39500
O2179       O  0.28992684  0.45097127  0.11140574    -0.40300
O2180       O  0.26988929  0.50339865  0.12010708    -0.40300
C2181       C  0.30738648  0.63014685  0.22324738    -0.12600
C2182       C  0.31580465  0.62734019  0.18770820     0.04400
C2183       C  0.31405901  0.65835326  0.16775243    -0.07900
C2184       C  0.30270450  0.68997389  0.18271196    -0.08600
C2185       C  0.29342398  0.69271869  0.21796666    -0.03200
C2186       C  0.29687074  0.66220545  0.23862925     0.03600
N2187       N  0.28830259  0.66259330  0.27476183     0.66100
H2188       H  0.30896129  0.60706529  0.23942212     0.15000
H2189       H  0.30000481  0.71254386  0.16599535     0.14700
N2190       N  0.32142008  0.65792270  0.13151534     0.73800
O2191       O  0.27184752  0.63723706  0.28781434    -0.39600
O2192       O  0.30237660  0.68476227  0.29466437    -0.39500
O2193       O  0.29709025  0.65269276  0.10996692    -0.40300
O2194       O  0.35095015  0.66760132  0.12093773    -0.40300
C2195       C  0.11461698  0.47259994  0.33955611    -0.12600
C2196       C  0.14125400  0.49609115  0.34871285     0.04400
C2197       C  0.17424466  0.49330612  0.33272076    -0.07900
C2198       C  0.17905113  0.46823062  0.30670232    -0.08600
C2199       C  0.15157636  0.44627444  0.29654893    -0.03200
C2200       C  0.11882360  0.44903352  0.31269068     0.03600
N2201       N  0.08912174  0.42913420  0.30094951     0.66100
H2202       H  0.08892583  0.47474508  0.35077426     0.15000
H2203       H  0.20457517  0.46496329  0.29532045     0.14700
N2204       N  0.20289569  0.51546584  0.34270821     0.73800
O2205       O  0.06715210  0.41774789  0.32242481    -0.39600
O2206       O  0.08279818  0.42620223  0.26892147    -0.39500
O2207       O  0.20808303  0.52282398  0.37422466    -0.40300
O2208       O  0.22447311  0.52582541  0.32035937    -0.40300
C2209       C  0.11921851  0.63121384  0.31558879    -0.12600
C2210       C  0.14068273  0.61949960  0.34249665     0.04400
C2211       C  0.17600229  0.63016759  0.34397919    -0.07900
C2212       C  0.18877797  0.65321034  0.31864930    -0.08600
C2213       C  0.16701105  0.66498872  0.29188422    -0.03200
C2214       C  0.13224971  0.65307833  0.28996096     0.03600
N2215       N  0.10995945  0.66315749  0.26180614     0.66100
H2216       H  0.09269501  0.62160591  0.31324318     0.15000
H2217       H  0.21488781  0.66378131  0.32117680     0.14700
N2218       N  0.19867632  0.61864753  0.37145091     0.73800
O2219       O  0.11836574  0.65579578  0.23111761    -0.39600
O2220       O  0.08054320  0.67645364  0.26768017    -0.39500
O2221       O  0.23084156  0.61483438  0.36607436    -0.40300
O2222       O  0.18714043  0.61461044  0.40176364    -0.40300
C2223       C  0.18777779  0.40055463  0.41963797    -0.12600
C2224       C  0.15248765  0.39420679  0.42777338     0.04400
C2225       C  0.13218798  0.37539069  0.40336910    -0.07900
C2226       C  0.14745703  0.36300625  0.37247811    -0.08600
C2227       C  0.18301296  0.36843413  0.36439470    -0.03200
C2228       C  0.20293658  0.38890473  0.38808851     0.03600
N2229       N  0.23817706  0.39875691  0.38055663     0.66100
H2230       H  0.20355010  0.41555843  0.43769517     0.15000
H2231       H  0.13123296  0.34783604  0.35496079     0.14700
N2232       N  0.09649737  0.36667036  0.41035884     0.73800
O2233       O  0.24498812  0.41396098  0.35235630    -0.39600
O2234       O  0.26079773  0.39890788  0.40444961    -0.39500
O2235       O  0.07402098  0.36802194  0.38637746    -0.40300
O2236       O  0.08822006  0.35336690  0.43910912    -0.40300
C2237       C  0.14748521  0.35606575  0.56472511    -0.12600
C2238       C  0.15559875  0.39070864  0.55619120     0.04400
C2239       C  0.17967512  0.40897087  0.57774001    -0.07900
C2240       C  0.19416499  0.39230163  0.60753317    -0.08600
C2241       C  0.18474484  0.35790290  0.61688292    -0.03200
C2242       C  0.16131382  0.33977070  0.59445202     0.03600
N2243       N  0.15155399  0.30426265  0.60096532     0.66100
H2244       H  0.12980035  0.34140373  0.54816555     0.15000
H2245       H  0.21166192  0.40688839  0.62431325     0.14700
N2246       N  0.18973298  0.44426143  0.56985686     0.73800
O2247       O  0.12556385  0.29793894  0.61984203    -0.39600
O2248       O  0.16279307  0.28054265  0.58130178    -0.39500
O2249       O  0.16740571  0.46612466  0.55954893    -0.40300
O2250       O  0.22067442  0.45428465  0.57515836    -0.40300
C2251       C  0.30711645  0.25675399  0.43164911    -0.12600
C2252       C  0.31279945  0.22086954  0.43711177     0.04400
C2253       C  0.29453301  0.19608527  0.41696513    -0.07900
C2254       C  0.27263848  0.20745717  0.39067390    -0.08600
C2255       C  0.26784796  0.24320600  0.38440481    -0.03200
C2256       C  0.28439939  0.26807147  0.40559777     0.03600
N2257       N  0.27862975  0.30460172  0.40076633     0.66100
H2258       H  0.31994765  0.27597207  0.44800931     0.15000
H2259       H  0.25913796  0.18809857  0.37497767     0.14700
N2260       N  0.29558300  0.15952391  0.42466279     0.73800
O2261       O  0.25482430  0.31970163  0.41738597    -0.39600
O2262       O  0.29886314  0.32227482  0.38196303    -0.39500
O2263       O  0.27361407  0.14653130  0.44521183    -0.40300
O2264       O  0.31501976  0.13959848  0.40741588    -0.40300
C2265       C  0.30146070  0.19631782  0.57640617    -0.12600
C2266       C  0.31809096  0.22346951  0.55863227     0.04400
C2267       C  0.30729457  0.25842201  0.56347278    -0.07900
C2268       C  0.27920806  0.26515830  0.58549214    -0.08600
C2269       C  0.26213399  0.23762913  0.60224134    -0.03200
C2270       C  0.27291859  0.20281090  0.59711124     0.03600
N2271       N  0.25521373  0.17385818  0.61322418     0.66100
H2272       H  0.30862556  0.16933916  0.57185206     0.15000
H2273       H  0.27198599  0.29190751  0.59116242     0.14700
N2274       N  0.32485055  0.28699257  0.54666541     0.73800
O2275       O  0.22244154  0.17376477  0.61572438    -0.39600
O2276       O  0.27207708  0.14737443  0.62316538    -0.39500
O2277       O  0.30871964  0.31488842  0.53987449    -0.40300
O2278       O  0.35711749  0.28542868  0.54073862    -0.40300
loop_ 
_geom_bond_atom_site_label_1 
_geom_bond_atom_site_label_2 
_geom_bond_distance 
_geom_bond_site_symmetry_2 
_ccdc_geom_bond_type 
C1            N2   1.348       .  A
C1            N6   1.355       .  A
C1         C2266   1.457       .  S
N2            C3   1.348       .  A
C3            N4   1.356       .  A
C3         C2252   1.459       .  S
N4            C5   1.353       .  A
C5            N6   1.351       .  A
C5          C863   1.451       .  S
C7            N8   1.365       .  A
C7           N12   1.369       .  A
C7         C2238   1.505       .  S
N8            C9   1.365       .  A
C9           N10   1.374       .  A
C9         C2224   1.515       .  S
N10          C11   1.373       .  A
C11          N12   1.370       .  A
C11         C761   1.515       .  S
C13          N14   1.353       .  A
C13          N18   1.350       .  A
C13        C2196   1.470       .  S
N14          C15   1.349       .  A
C15          N16   1.360       .  A
C15         C784   1.460       .  S
N16          C17   1.362       .  A
C17          N18   1.350       .  A
C17        C2210   1.460       .  S
C19          N20   1.371       .  A
C19          N24   1.366       .  A
C19        C2168   1.517       .  S
N20          C21   1.367       .  A
C21          N22   1.371       .  A
C21         C818   1.519       .  S
N22          C23   1.375       .  A
C23          N24   1.370       .  A
C23        C2182   1.524       .  S
C25          N26   1.360       .  A
C25          N30   1.349       .  A
C25        C2143   1.495       .  S
N26          C27   1.365       .  A
C27          N28   1.380       .  A
C27        C2157   1.501       .  S
N28          C29   1.370       .  A
C29          N30   1.348       .  A
C29         C886   1.492       .  S
C31          N32   1.356       .  A
C31          N36   1.352       .  A
C31        C2129   1.471       .  S
N32          C33   1.354       .  A
C33          N34   1.359       .  A
C33         C806   1.473       .  S
N34          C35   1.365       .  A
C35          N36   1.352       .  A
C35        C2112   1.468       .  S
C37          N38   1.377       .  A
C37          N42   1.373       .  A
C37        C2101   1.526       .  S
N38          C39   1.371       .  A
C39          N40   1.364   1_556  A
C39         C528   1.517       .  S
N40          C41   1.369       .  A
C41          N42   1.370   1_554  A
C41        C2087   1.517       .  S
C43          N44   1.343   1_556  A
C43          N48   1.362       .  A
C43        C2070   1.463       .  S
N44          C45   1.344       .  A
C45          N46   1.351       .  A
C45        C2059   1.441       .  S
N46          C47   1.351   1_554  A
C47          N48   1.358       .  A
C47         C561   1.455       .  S
O49          C76   1.265       .  A
O49         Mn75   2.073       .  S
C50        C2269   1.447       .  S
C50          O83   1.268       .  A
C50          O80   1.257       .  A
O51         Mn58   2.174       .  S
O51         Mn69   2.097       .  S
O51         Mn73   2.184       .  S
O51         Mn75   2.115       .  S
O52          C62   1.264       .  A
O52         Mn86   2.059       .  S
O53          C76   1.263       .  A
O53         Mn69   2.048       .  S
O54          C81   1.269       .  A
O54         Mn73   2.196       .  S
O55         Mn86   1.953       .  S
O55         Mn75   1.948       .  S
O55          C71   1.222       .  S
C56        C2003   1.506       .  S
C56          O59   1.267       .  A
C56          O82   1.229       .  A
O57         Mn77   2.095       .  S
O57         Mn58   2.177       .  S
O57         Mn91   2.093       .  S
O57         Mn73   2.172       .  S
Mn58         O87   2.175       .  S
Mn58         O63   2.192       .  S
Mn58         O90   2.176       .  S
Mn58         O64   2.189       .  S
O59         Mn73   2.200       .  S
O60          C62   1.273       .  A
O60         Mn67   2.099       .  S
C61        C1972   1.525       .  S
C61          O87   1.265       .  A
C61          O74   1.219       .  S
C62        C2017   1.485       .  S
O63          C88   1.267       .  A
O64         Mn67   2.102       .  S
O64         Mn86   2.111       .  S
O64         Mn73   2.190       .  S
O65         Mn69   1.937       .  S
O65         Mn91   1.924       .  S
O65          C88   1.206       .  S
C66        C2073   1.468       .  S
C66          O92   1.268       .  A
C66          O68   1.272       .  A
Mn67         O80   2.017       .  S
Mn67         O82   1.985       .  S
Mn67         O74   1.970       .  S
O68         Mn91   2.081       .  S
Mn69         O85   2.093       .  S
Mn69         O79   1.958       .  S
O70          C72   1.266       .  A
O70         Mn75   2.064       .  S
C71        C2031   1.513       .  S
C71          O89   1.266       .  A
C72        C1958   1.481       .  S
C72          O85   1.273       .  A
Mn73         O89   2.157       .  S
O74         Mn77   1.975       .  S
Mn75         O93   1.949       .  S
C76        C2042   1.445       .  S
Mn77         O84   2.078       .  S
Mn77         O92   2.066       .  S
Mn77         O82   1.992       .  S
C78        C1986   1.457       .  S
C78          O84   1.268       .  A
C78          O94   1.263       .  A
O79         Mn91   1.954       .  S
O79          C81   1.212       .  S
C81        C2098   1.528       .  S
O83         Mn86   2.093       .  S
Mn86         O93   1.949       .  S
C88        C1944   1.510       .  S
O90          C95   1.268       .  A
Mn91         O94   2.056       .  S
O93          C95   1.218       .  S
C95        C2241   1.516       .  S
C96          N97   1.350       .  A
C96         N101   1.355       .  A
C96        C1930   1.465   1_545  S
N97          C98   1.349       .  A
C98          N99   1.360       .  A
C98        C1919   1.464       .  S
N99         C100   1.355       .  A
C100        N101   1.350       .  A
C100        C483   1.457       .  S
C102        N103   1.367       .  A
C102        N107   1.372       .  A
C102       C1902   1.514   1_545  S
N103        C104   1.368       .  A
C104        N105   1.377       .  A
C104       C1891   1.525       .  S
N105        C106   1.375       .  A
C106        N107   1.373       .  A
C106        C573   1.525       .  S
O108        C135   1.275       .  A
O108       Mn134   2.101       .  S
C109       C2213   1.461       .  S
C109        O142   1.272       .  A
C109        O139   1.266       .  A
O110       Mn117   2.194       .  S
O110       Mn128   2.127       .  S
O110       Mn132   2.177       .  S
O110       Mn134   2.105       .  S
O111        C121   1.264       .  A
O111       Mn145   2.057       .  S
O112        C135   1.269       .  A
O112       Mn128   2.078       .  S
O113        C140   1.269       .  A
O113       Mn132   2.180       .  S
O114       Mn145   2.010       .  S
O114       Mn134   2.009       .  S
O114        C130   1.233       .  A
C115       C1832   1.526       .  S
C115        O118   1.266       .  A
C115        O141   1.212       .  S
O116       Mn136   2.111       .  S
O116       Mn117   2.165       .  S
O116       Mn150   2.117       .  S
O116       Mn132   2.195       .  S
Mn117       O146   2.194       .  S
Mn117       O122   2.177       .  S
Mn117       O149   2.172       .  S
Mn117       O123   2.166       .  S
O118       Mn132   2.191       .  S
O119        C121   1.270       .  A
O119       Mn126   2.087       .  S
C120       C1804   1.515       .  S
C120        O146   1.276       .  A
C120        O133   1.241       .  A
C121       C1846   1.467       .  S
O122        C147   1.269       .  A
O123       Mn126   2.085       .  S
O123       Mn145   2.097       .  S
O123       Mn132   2.179       .  S
O124       Mn128   1.952       .  S
O124       Mn150   1.958       .  S
O124        C147   1.220       .  S
C125       C1933   1.451       .  S
C125        O151   1.258       .  A
C125        O127   1.266       .  A
Mn126       O139   2.075       .  S
Mn126       O133   2.025       .  S
Mn126       O141   1.961       .  S
O127       Mn150   2.081       .  S
Mn128       O144   2.077       .  S
Mn128       O138   1.945       .  S
O129        C131   1.257       .  A
O129       Mn134   2.020       .  S
C130       C1860   1.515       .  S
C130        O148   1.273       .  A
C131       C1793   1.433       .  S
C131        O144   1.264       .  A
Mn132       O148   2.200       .  S
O133       Mn136   2.032       .  S
Mn134       O152   1.978       .  S
C135       C1877   1.488       .  S
Mn136       O143   2.087       .  S
Mn136       O151   2.029       .  S
Mn136       O141   1.953       .  S
C137       C1818   1.481       .  S
C137        O143   1.272       .  A
C137        O153   1.273       .  A
O138       Mn150   1.962       .  S
O138        C140   1.222       .  S
C140       C1905   1.528       .  S
O142       Mn145   2.098       .  S
Mn145       O152   1.963       .  S
C147       C1776   1.521       .  S
O149        C154   1.263       .  A
Mn150       O153   2.089       .  S
O152        C154   1.216       .  S
C154       C2185   1.519       .  S
C155        N156   1.348       .  A
C155        N160   1.355       .  A
C155       C1762   1.484       .  S
N156        C157   1.347       .  A
C157        N158   1.368   1_655  A
C157        C506   1.486       .  S
N158        C159   1.379       .  A
C159        N160   1.361   1_455  A
C159       C1751   1.492       .  S
C161        N162   1.370       .  A
C161        N166   1.358       .  A
C161       C1734   1.481       .  S
N162        C163   1.364       .  A
C163        N164   1.354       .  A
C163        C516   1.483       .  S
N164        C165   1.357       .  A
C165        N166   1.356       .  A
C165       C1723   1.479   1_655  S
O167        C194   1.268       .  A
O167       Mn193   2.078       .  S
C168       C2140   1.487       .  S
C168        O201   1.272       .  A
C168        O198   1.271       .  A
O169       Mn176   2.161       .  S
O169       Mn187   2.111       .  S
O169       Mn191   2.160       .  S
O169       Mn193   2.108       .  S
O170        C180   1.272       .  A
O170       Mn204   2.105       .  S
O171        C194   1.268       .  A
O171       Mn187   2.085       .  S
O172        C199   1.259       .  A
O172       Mn191   2.135       .  S
O173       Mn204   1.978       .  S
O173       Mn193   1.957       .  S
O173        C189   1.221       .  S
C174       C1709   1.495       .  S
C174        O177   1.255       .  A
C174        O200   1.213       .  S
O175       Mn195   2.103       .  S
O175       Mn176   2.168       .  S
O175       Mn209   2.106       .  S
O175       Mn191   2.169       .  S
Mn176       O205   2.127       .  S
Mn176       O181   2.129       .  S
Mn176       O208   2.139       .  S
Mn176       O182   2.167       .  S
O177       Mn191   2.138       .  S
O178        C180   1.267       .  A
O178       Mn185   2.062       .  S
C179       C2115   1.489       .  S
C179        O205   1.257       .  A
C179        O192   1.241       .  A
C180       C1664   1.483       .  S
O181        C206   1.259       .  A
O182       Mn185   2.097       .  S
O182       Mn204   2.118       .  S
O182       Mn191   2.169       .  S
O183       Mn187   1.952       .  S
O183       Mn209   1.972       .  S
O183        C206   1.220       .  S
C184       C1692   1.488       .  S
C184        O210   1.269       .  A
C184        O186   1.272       .  A
Mn185       O198   2.093       .  S
Mn185       O192   2.035       .  S
Mn185       O200   1.949       .  S
O186       Mn209   2.092       .  S
Mn187       O203   2.097       .  S
Mn187       O197   1.972       .  S
O188        C190   1.269       .  A
O188       Mn193   2.090       .  S
C189       C1678   1.500       .  S
C189        O207   1.259       .  A
C190       C1639   1.477       .  S
C190        O203   1.271       .  A
Mn191       O207   2.123       .  S
O192       Mn195   2.024       .  S
Mn193       O211   1.963       .  S
C194       C1765   1.473       .  S
Mn195       O202   2.091       .  S
Mn195       O210   2.086       .  S
Mn195       O200   1.964       .  S
C196       C1608   1.478       .  S
C196        O202   1.272       .  A
C196        O212   1.270       .  A
O197       Mn209   1.943       .  S
O197        C199   1.220       .  S
C199       C1737   1.504       .  S
O201       Mn204   2.087       .  S
Mn204       O211   1.945       .  S
C206       C1625   1.500       .  S
O208        C213   1.259       .  A
Mn209       O212   2.079       .  S
O211        C213   1.220       .  S
C213       C1650   1.505       .  S
C214        N215   1.357   1_556  A
C214        N219   1.353       .  A
C214       C1594   1.479       .  S
N215        C216   1.359       .  A
C216        N217   1.367       .  A
C216       C1706   1.476       .  S
N217        C218   1.361       .  A
C218        N219   1.352   1_554  A
C218        C562   1.471       .  S
C220        N221   1.349       .  A
C220        N225   1.359   1_554  A
C220       C1695   1.493       .  S
N221        C222   1.349   1_554  A
C222        N223   1.370       .  A
C222        C539   1.491       .  S
N223        C224   1.379       .  A
C224        N225   1.363       .  A
C224       C1583   1.496       .  S
C226        N227   1.375       .  A
C226        N231   1.366       .  A
C226       C1569   1.519       .  S
N227        C228   1.374       .  A
C228        N229   1.365       .  A
C228        C507   1.515       .  S
N229        C230   1.366       .  A
C230        N231   1.367       .  A
C230       C2028   1.498   1_655  S
C232        N233   1.351   1_655  A
C232        N237   1.350       .  A
C232       C2045   1.451   1_655  S
N233        C234   1.348   1_455  A
C234        N235   1.353       .  A
C234        C551   1.450       .  S
N235        C236   1.357       .  A
C236        N237   1.352       .  A
C236       C1552   1.472       .  S
O238        C265   1.265       .  A
O238       Mn264   2.055       .  S
C239       C1468   1.438       .  S
C239        O272   1.263       .  A
C239        O269   1.265       .  A
O240       Mn247   2.188       .  S
O240       Mn258   2.094       .  S
O240       Mn262   2.183       .  S
O240       Mn264   2.094       .  S
O241        C251   1.265       .  A
O241       Mn275   2.064       .  S
O242        C265   1.272       .  A
O242       Mn258   2.096       .  S
O243        C270   1.268       .  A
O243       Mn262   2.188       .  S
O244       Mn275   1.928       .  S
O244       Mn264   1.922       .  S
O244        C260   1.211       .  S
C245       C1538   1.536       .  S
C245        O248   1.272       .  A
C245        O271   1.216       .  S
O246       Mn266   2.090       .  S
O246       Mn247   2.162       .  S
O246       Mn280   2.110       .  S
O246       Mn262   2.179       .  S
Mn247       O276   2.197       .  S
Mn247       O252   2.197       .  S
Mn247       O279   2.182       .  S
Mn247       O253   2.181       .  S
O248       Mn262   2.201       .  S
O249        C251   1.274       .  A
O249       Mn256   2.117       .  S
C250       C1485   1.522       .  S
C250        O276   1.274       .  A
C250        O263   1.214       .  S
C251       C1597   1.484       .  S
O252        C277   1.271       .  A
O253       Mn256   2.113       .  S
O253       Mn275   2.105       .  S
O253       Mn262   2.175       .  S
O254       Mn258   1.925       .  S
O254       Mn280   1.922       .  S
O254        C277   1.211       .  S
C255       C1524   1.468       .  S
C255        O281   1.268       .  A
C255        O257   1.259       .  A
Mn256       O269   2.074       .  S
Mn256       O271   1.948       .  S
Mn256       O263   1.970       .  S
O257       Mn280   2.029       .  S
Mn258       O274   2.056       .  S
Mn258       O268   1.968       .  S
O259        C261   1.271       .  A
O259       Mn264   2.088       .  S
C260       C1580   1.512       .  S
C260        O278   1.270       .  A
C261       C1443   1.462       .  S
C261        O274   1.264       .  A
Mn262       O278   2.192       .  S
O263       Mn266   1.958       .  S
Mn264       O282   1.958       .  S
C265       C1555   1.473       .  S
Mn266       O273   2.130       .  S
Mn266       O281   2.092       .  S
Mn266       O271   1.983       .  S
C267       C1496   1.479       .  S
C267        O273   1.277       .  A
C267        O283   1.266       .  A
O268       Mn280   1.966       .  S
O268        C270   1.221       .  S
C270       C1566   1.537       .  S
O272       Mn275   2.045       .  S
Mn275       O282   1.948       .  S
C277       C1510   1.516       .  S
O279        C284   1.265       .  A
Mn280       O283   2.072       .  S
O282        C284   1.215       .  S
C284       C1454   1.522       .  S
C285        N286   1.356       .  A
C285        N290   1.357   1_556  A
C285       C1426   1.496       .  S
N286        C287   1.354   1_556  A
C287        N288   1.371       .  A
C287        C527   1.496       .  S
N288        C289   1.378       .  A
C289        N290   1.361       .  A
C289       C1863   1.493       .  S
C291        N292   1.360   1_554  A
C291        N296   1.354       .  A
C291       C1874   1.495       .  S
N292        C293   1.363       .  A
C293        N294   1.368       .  A
C293       C1412   1.479       .  S
N294        C295   1.359       .  A
C295        N296   1.349   1_556  A
C295        C596   1.473       .  S
C297        N298   1.367       .  A
C297        N302   1.359       .  A
C297       C1398   1.468   1_545  S
N298        C299   1.362       .  A
C299        N300   1.349       .  A
C299        C482   1.471       .  S
N300        C301   1.353       .  A
C301        N302   1.354       .  A
C301       C2014   1.489       .  S
C303        N304   1.347       .  A
C303        N308   1.354       .  A
C303       C1384   1.479       .  S
N304        C305   1.346       .  A
C305        N306   1.368       .  A
C305        C584   1.487       .  S
N306        C307   1.378       .  A
C307        N308   1.357       .  A
C307       C2000   1.485       .  S
O309        C336   1.271       .  A
O309       Mn335   2.105       .  S
C310       C1429   1.485       .  S
C310        O343   1.276       .  A
C310        O340   1.269       .  A
O311       Mn318   2.170       .  S
O311       Mn329   2.110       .  S
O311       Mn333   2.171       .  S
O311       Mn335   2.108       .  S
O312        C322   1.267       .  A
O312       Mn346   2.066       .  S
O313        C336   1.265       .  A
O313       Mn329   2.069       .  S
O314        C341   1.255       .  A
O314       Mn333   2.132       .  S
O315       Mn346   1.971       .  S
O315       Mn335   1.963       .  S
O315        C331   1.220       .  S
C316       C1272   1.488       .  S
C316        O319   1.256       .  A
C316        O342   1.212       .  S
O317       Mn337   2.098       .  S
O317       Mn318   2.169       .  S
O317       Mn351   2.098       .  S
O317       Mn333   2.174       .  S
Mn318       O347   2.135       .  S
Mn318       O323   2.140       .  S
Mn318       O350   2.134       .  S
Mn318       O324   2.175       .  S
O319       Mn333   2.134       .  S
O320        C322   1.274       .  A
O320       Mn327   2.100       .  S
C321       C1359   1.491       .  S
C321        O347   1.256       .  A
C321        O334   1.212       .  S
C322       C1286   1.480       .  S
O323        C348   1.261       .  A
O324       Mn327   2.102       .  S
O324       Mn346   2.112       .  S
O324       Mn333   2.166       .  S
O325       Mn329   2.027       .  S
O325       Mn351   2.018       .  S
O325        C348   1.239       .  A
C326       C1342   1.486       .  S
C326        O352   1.272       .  A
C326        O328   1.269       .  A
Mn327       O340   2.075       .  S
Mn327       O342   1.955       .  S
Mn327       O334   1.941       .  S
O328       Mn351   2.088       .  S
Mn329       O345   2.081       .  S
Mn329       O339   1.945       .  S
O330        C332   1.266       .  A
O330       Mn335   2.060       .  S
C331       C1300   1.488       .  S
C331        O349   1.257       .  A
C332       C1387   1.470       .  S
C332        O345   1.267       .  A
Mn333       O349   2.124       .  S
O334       Mn337   1.954       .  S
Mn335       O353   1.948       .  S
C336       C1317   1.478       .  S
Mn337       O344   2.100       .  S
Mn337       O352   2.087       .  S
Mn337       O342   1.941       .  S
C338       C1370   1.491       .  S
C338        O344   1.274       .  A
C338        O354   1.272       .  A
O339       Mn351   1.964       .  S
O339        C341   1.212       .  S
C341       C1328   1.490       .  S
O343       Mn346   2.115       .  S
Mn346       O353   1.951       .  S
C348       C1401   1.489       .  S
O350        C355   1.259       .  A
Mn351       O354   2.083       .  S
O353        C355   1.216       .  S
C355       C1415   1.496       .  S
C356        N357   1.353       .  A
C356        N361   1.346       .  A
C356       C1258   1.452       .  S
N357        C358   1.349       .  A
C358        N359   1.353   1_655  A
C358        C517   1.451       .  S
N359        C360   1.357       .  A
C360        N361   1.349   1_455  A
C360       C1849   1.465       .  S
C362        N363   1.366       .  A
C362        N367   1.364       .  A
C362       C1244   1.497       .  S
N363        C364   1.367       .  A
C364        N365   1.373   1_655  A
C364        C471   1.511       .  S
N365        C366   1.375       .  A
C366        N367   1.365   1_455  A
C366       C1835   1.514       .  S
C368        N369   1.354       .  A
C368        N373   1.359       .  A
C368       C1230   1.490       .  S
N369        C370   1.347       .  A
C370        N371   1.359       .  A
C370        C494   1.474       .  S
N371        C372   1.370       .  A
C372        N373   1.363       .  A
C372       C1681   1.481       .  S
C374        N375   1.361       .  A
C374        N379   1.378       .  A
C374       C1219   1.489   1_545  S
N375        C376   1.356       .  A
C376        N377   1.351       .  A
C376       C1667   1.490       .  S
N377        C378   1.349       .  A
C378        N379   1.370       .  A
C378        C572   1.489       .  S
O380        C407   1.268       .  A
O380       Mn406   2.071       .  S
C381       C1261   1.441       .  S
C381        O414   1.258       .  A
C381        O411   1.264       .  A
O382       Mn389   2.174       .  S
O382       Mn400   2.092       .  S
O382       Mn404   2.177       .  S
O382       Mn406   2.097       .  S
O383        C393   1.270       .  A
O383       Mn417   2.091       .  S
O384        C407   1.272       .  A
O384       Mn400   2.083       .  S
O385        C412   1.264       .  A
O385       Mn404   2.171       .  S
O386       Mn417   1.987       .  S
O386       Mn406   1.995       .  S
O386        C402   1.230       .  A
C387       C1177   1.517       .  S
C387        O390   1.266       .  A
C387        O413   1.222       .  S
O388       Mn408   2.114       .  S
O388       Mn389   2.180       .  S
O388       Mn422   2.111       .  S
O388       Mn404   2.188       .  S
Mn389       O418   2.163       .  S
Mn389       O394   2.200       .  S
Mn389       O421   2.187       .  S
Mn389       O395   2.191       .  S
O390       Mn404   2.165       .  S
O391        C393   1.271       .  A
O391       Mn398   2.079       .  S
C392       C1247   1.514       .  S
C392        O418   1.269       .  A
C392        O405   1.224       .  S
C393       C1107   1.473       .  S
O394        C419   1.270       .  A
O395       Mn398   2.119       .  S
O395       Mn417   2.110       .  S
O395       Mn404   2.174       .  S
O396       Mn400   1.995       .  S
O396       Mn422   1.998       .  S
O396        C419   1.229       .  A
C397       C1163   1.449       .  S
C397        O423   1.264       .  A
C397        O399   1.258       .  A
Mn398       O411   2.081       .  S
Mn398       O413   1.966       .  S
Mn398       O405   1.954       .  S
O399       Mn422   2.034       .  S
Mn400       O416   2.056       .  S
Mn400       O410   1.976       .  S
O401        C403   1.272       .  A
O401       Mn406   2.090       .  S
C402       C1118   1.499       .  S
C402        O420   1.267       .  A
C403       C1188   1.464       .  S
C403        O416   1.264       .  A
Mn404       O420   2.186       .  S
O405       Mn408   1.960       .  S
Mn406       O424   1.977       .  S
C407       C1132   1.471       .  S
Mn408       O415   2.065       .  S
Mn408       O423   2.089       .  S
Mn408       O413   1.957       .  S
C409       C1233   1.487       .  S
C409        O415   1.266       .  A
C409        O425   1.273       .  A
O410       Mn422   1.978       .  S
O410        C412   1.218       .  S
C412       C1146   1.519       .  S
O414       Mn417   2.029       .  S
Mn417       O424   1.971       .  S
C419       C1216   1.511       .  S
O421        C426   1.266       .  A
Mn422       O425   2.101       .  S
O424        C426   1.216       .  S
C426       C1202   1.528       .  S
C427        N428   1.347       .  A
C427        N432   1.362       .  A
C427       C1191   1.468       .  S
N428        C429   1.345   1_554  A
C429        N430   1.353       .  A
C429       C1090   1.458       .  S
N430        C431   1.351       .  A
C431        N432   1.357   1_556  A
C431        C597   1.458       .  S
C433        N434   1.366   1_556  A
C433        N438   1.368       .  A
C433       C1076   1.505       .  S
N434        C435   1.369       .  A
C435        N436   1.377       .  A
C435       C1205   1.527       .  S
N436        C437   1.374       .  A
C437        N438   1.367   1_554  A
C437        C538   1.517       .  S
C439        N440   1.347       .  A
C439        N444   1.351       .  A
C439       C1527   1.469       .  S
N440        C441   1.348       .  A
C441        N442   1.357       .  A
C441       C1062   1.465   1_545  S
N442        C443   1.353       .  A
C443        N444   1.350       .  A
C443        C493   1.450       .  S
C445        N446   1.370       .  A
C445        N450   1.369       .  A
C445       C1541   1.516       .  S
N446        C447   1.365       .  A
C447        N448   1.372       .  A
C447        C583   1.518       .  S
N448        C449   1.376       .  A
C449        N450   1.370       .  A
C449       C1048   1.519   1_545  S
C451        N452   1.354       .  A
C451        N456   1.351       .  A
C451       C1373   1.495   1_655  S
N452        C453   1.361       .  A
C453        N454   1.381       .  A
C453       C1034   1.499       .  S
N454        C455   1.376       .  A
C455        N456   1.354       .  A
C455        C472   1.497       .  S
C457        N458   1.356       .  A
C457        N462   1.354       .  A
C457       C1023   1.490       .  S
N458        C459   1.360   1_655  A
C459        N460   1.369       .  A
C459       C1356   1.473       .  S
N460        C461   1.362   1_455  A
C461        N462   1.350       .  A
C461        C552   1.475       .  S
N463        N464   1.329       .  A
N463        N469   1.314       .  A
N463       Mn492   2.247   1_565  S
N464        C471   1.362       .  A
N465        N467   1.315       .  A
N465        N466   1.319       .  A
N465       Mn481   2.219   1_655  S
N466        C472   1.355       .  A
N467        N468   1.334       .  A
N467       Mn492   2.240   1_565  S
N468        C472   1.361       .  A
N469        N470   1.330   1_655  A
N469       Mn481   2.240   1_655  S
N470        C471   1.360   1_455  A
N473        N479   1.319       .  A
N473        N474   1.317       .  A
N473       Mn503   2.207       .  S
N474        C482   1.352       .  A
N475        N476   1.318       .  A
N475        N477   1.319       .  A
N475       Mn481   2.193   1_545  S
N476        C483   1.348       .  A
N477        N478   1.321       .  A
N477       Mn503   2.197       .  S
N478        C483   1.347       .  A
N479        N480   1.326       .  A
N479       Mn481   2.217   1_545  S
N480        C482   1.353       .  A
Mn481      Cl505   2.547   1_465  S
N484        N485   1.320       .  A
N484        N490   1.319       .  A
N484       Mn492   2.194       .  S
N485        C493   1.348       .  A
N486        N488   1.319       .  A
N486        N487   1.327       .  A
N486       Mn504   2.221       .  S
N487        C494   1.354       .  A
N488        N489   1.318       .  A
N488       Mn492   2.211       .  S
N489        C494   1.352       .  A
N490        N491   1.315       .  A
N490       Mn504   2.182       .  S
N491        C493   1.346       .  A
Mn492      Cl505   2.555       .  S
N495        N496   1.332       .  A
N495        N501   1.313   1_455  A
N495       Mn503   2.225       .  S
N496        C506   1.358   1_455  A
N497        N498   1.331       .  A
N497        N499   1.316       .  A
N497       Mn504   2.249       .  S
N498        C507   1.361       .  A
N499        N500   1.330       .  A
N499       Mn503   2.256   1_655  S
N500        C507   1.363       .  A
N501        N502   1.316       .  A
N501       Mn504   2.201       .  S
N502        C506   1.352       .  A
Mn503      Cl505   2.554   1_455  S
Mn504      Cl505   2.548       .  S
N508        N509   1.327       .  A
N508        N514   1.320       .  A
N508       Mn537   2.231       .  S
N509        C516   1.355       .  A
N510        N512   1.319       .  A
N510        N511   1.319   1_655  A
N510       Mn526   2.195   1_655  S
N511        C517   1.347   1_455  A
N512        N513   1.318       .  A
N512       Mn537   2.182       .  S
N513        C517   1.346       .  A
N514        N515   1.321       .  A
N514       Mn526   2.226   1_655  S
N515        C516   1.354       .  A
N518        N524   1.315   1_556  A
N518        N519   1.320       .  A
N518       Mn548   2.212       .  S
N519        C527   1.354   1_556  A
N520        N521   1.331       .  A
N520        N522   1.315   1_554  A
N520       Mn526   2.254       .  S
N521        C528   1.363   1_554  A
N522        N523   1.332       .  A
N522       Mn548   2.252       .  S
N523        C528   1.361       .  A
N524        N525   1.334       .  A
N524       Mn526   2.245       .  S
N525        C527   1.360       .  A
Mn526      Cl550   2.552   1_454  S
N529        N530   1.332       .  A
N529        N535   1.315   1_554  A
N529       Mn537   2.255       .  S
N530        C538   1.362       .  A
N531        N533   1.313   1_556  A
N531        N532   1.332       .  A
N531       Mn549   2.231       .  S
N532        C539   1.359       .  A
N533        N534   1.318       .  A
N533       Mn537   2.210       .  S
N534        C539   1.355   1_554  A
N535        N536   1.330       .  A
N535       Mn549   2.252       .  S
N536        C538   1.363   1_556  A
Mn537      Cl550   2.554   1_554  S
N540        N541   1.317   1_655  A
N540        N546   1.320       .  A
N540       Mn548   2.185   1_655  S
N541        C551   1.347   1_455  A
N542        N543   1.317       .  A
N542        N544   1.319   1_655  A
N542       Mn549   2.210       .  S
N543        C552   1.351       .  A
N544        N545   1.328       .  A
N544       Mn548   2.223       .  S
N545        C552   1.355   1_455  A
N546        N547   1.318       .  A
N546       Mn549   2.193       .  S
N547        C551   1.346       .  A
Mn548      Cl550   2.556   1_455  S
Mn549      Cl550   2.552       .  S
N553        N554   1.322       .  A
N553        N559   1.319   1_556  A
N553       Mn582   2.207       .  S
N554        C561   1.350       .  A
N555        N557   1.320   1_554  A
N555        N556   1.326       .  A
N555       Mn571   2.227       .  S
N556        C562   1.355       .  A
N557        N558   1.317       .  A
N557       Mn582   2.203       .  S
N558        C562   1.350   1_556  A
N559        N560   1.315       .  A
N559       Mn571   2.189       .  S
N560        C561   1.348   1_554  A
N563        N569   1.314       .  A
N563        N564   1.331       .  A
N563       Mn593   2.221       .  S
N564        C572   1.357       .  A
N565        N566   1.333       .  A
N565        N567   1.316       .  A
N565       Mn571   2.265       .  S
N566        C573   1.364       .  A
N567        N568   1.332       .  A
N567       Mn593   2.259       .  S
N568        C573   1.363       .  A
N569        N570   1.319       .  A
N569       Mn571   2.216       .  S
N570        C572   1.355       .  A
Mn571      Cl595   2.551   1_554  S
N574        N575   1.331       .  A
N574        N580   1.316       .  A
N574       Mn582   2.263       .  S
N575        C583   1.364       .  A
N576        N578   1.314       .  A
N576        N577   1.317       .  A
N576       Mn594   2.211       .  S
N577        C584   1.354       .  A
N578        N579   1.332       .  A
N578       Mn582   2.225       .  S
N579        C584   1.358       .  A
N580        N581   1.331       .  A
N580       Mn594   2.245       .  S
N581        C583   1.360       .  A
Mn582      Cl595   2.556       .  S
N585        N586   1.317       .  A
N585        N591   1.319   1_554  A
N585       Mn593   2.204   1_565  S
N586        C596   1.350   1_554  A
N587        N588   1.319       .  A
N587        N589   1.319   1_556  A
N587       Mn594   2.190   1_565  S
N588        C597   1.348       .  A
N589        N590   1.321       .  A
N589       Mn593   2.201   1_565  S
N590        C597   1.348   1_554  A
N591        N592   1.328       .  A
N591       Mn594   2.227   1_565  S
N592        C596   1.355       .  A
Mn593      Cl595   2.556   1_554  S
Mn594      Cl595   2.554       .  S
O598        C625   1.268       .  A
O598       Mn624   2.099       .  S
C599       C1093   1.447       .  S
C599        O632   1.269       .  A
C599        O629   1.260       .  A
O600       Mn607   2.160       .  S
O600       Mn618   2.091       .  S
O600       Mn622   2.174       .  S
O600       Mn624   2.099       .  S
O601        C611   1.266       .  A
O601       Mn635   2.069       .  S
O602        C625   1.257       .  A
O602       Mn618   2.042       .  S
O603        C630   1.273       .  A
O603       Mn622   2.200       .  S
O604       Mn635   1.930       .  S
O604       Mn624   1.942       .  S
O604        C620   1.217       .  S
C605        C964   1.511       .  S
C605        O608   1.269       .  A
C605        O631   1.233       .  A
O606       Mn626   2.102       .  S
O606       Mn607   2.178       .  S
O606       Mn640   2.102       .  S
O606       Mn622   2.175       .  S
Mn607       O636   2.181       .  S
Mn607       O612   2.198       .  S
Mn607       O639   2.168       .  S
Mn607       O613   2.183       .  S
O608       Mn622   2.195       .  S
O609        C611   1.272       .  A
O609       Mn616   2.095       .  S
C610       C1051   1.529       .  S
C610        O636   1.265       .  A
C610        O623   1.218       .  S
C611        C978   1.484       .  S
O612        C637   1.269       .  A
O613       Mn616   2.098       .  S
O613       Mn635   2.123       .  S
O613       Mn622   2.196       .  S
O614       Mn618   1.927       .  S
O614       Mn640   1.931       .  S
O614        C637   1.208       .  S
C615       C1006   1.476       .  S
C615        O641   1.262       .  A
C615        O617   1.276       .  A
Mn616       O629   2.023       .  S
Mn616       O631   1.999       .  S
Mn616       O623   1.972       .  S
O617       Mn640   2.113       .  S
Mn618       O634   2.103       .  S
Mn618       O628   1.988       .  S
O619        C621   1.268       .  A
O619       Mn624   2.082       .  S
C620        C936   1.527       .  S
C620        O638   1.269       .  A
C621       C1020   1.489       .  S
C621        O634   1.273       .  A
Mn622       O638   2.187       .  S
O623       Mn626   1.967       .  S
Mn624       O642   1.974       .  S
C625        C950   1.469       .  S
Mn626       O633   2.083       .  S
Mn626       O641   2.043       .  S
Mn626       O631   1.996       .  S
C627       C1065   1.461       .  S
C627        O633   1.269       .  A
C627        O643   1.263       .  A
O628       Mn640   1.968       .  S
O628        C630   1.217       .  S
C630        C992   1.534       .  S
O632       Mn635   2.090       .  S
Mn635       O642   1.969       .  S
C637       C1037   1.505       .  S
O639        C644   1.270       .  A
Mn640       O643   2.041       .  S
O642        C644   1.225       .  S
C644       C1079   1.519       .  S
C645        N646   1.368       .  A
C645        N650   1.355       .  A
C645       C1331   1.470       .  S
N646        C647   1.363       .  A
C647        N648   1.354       .  A
C647        C862   1.475       .  S
N648        C649   1.356       .  A
C649        N650   1.353       .  A
C649       C1821   1.475       .  S
C651        N652   1.350       .  A
C651        N656   1.358       .  A
C651       C1345   1.492       .  S
N652        C653   1.349       .  A
C653        N654   1.372       .  A
C653        C796   1.494       .  S
N654        C655   1.382       .  A
C655        N656   1.363       .  A
C655       C1807   1.508       .  S
C657        N658   1.360       .  A
C657        N662   1.352       .  A
C657       C1636   1.489       .  S
N658        C659   1.365       .  A
C659        N660   1.378       .  A
C659       C1513   1.496       .  S
N660        C661   1.370       .  A
C661        N662   1.349       .  A
C661        C762   1.490       .  S
C663        N664   1.357       .  A
C663        N668   1.355       .  A
C663       C1499   1.473       .  S
N664        C665   1.359       .  A
C665        N666   1.367       .  A
C665       C1653   1.477       .  S
N666        C667   1.364       .  A
C667        N668   1.355       .  A
C667        C874   1.479       .  S
C669        N670   1.353       .  A
C669        N674   1.350       .  A
C669       C1160   1.456       .  S
N670        C671   1.350       .  A
C671        N672   1.356       .  A
C671        C873   1.460       .  S
N672        C673   1.364       .  A
C673        N674   1.352       .  A
C673       C1009   1.482       .  S
C675        N676   1.372       .  A
C675        N680   1.368       .  A
C675        C995   1.515       .  S
N676        C677   1.371       .  A
C677        N678   1.366       .  A
C677        C797   1.510       .  S
N678        C679   1.367       .  A
C679        N680   1.369       .  A
C679       C1174   1.505       .  S
C681        N682   1.355       .  A
C681        N686   1.349       .  A
C681       C1989   1.460       .  S
N682        C683   1.353       .  A
C683        N684   1.352       .  A
C683        C807   1.447       .  S
N684        C685   1.352       .  A
C685        N686   1.348       .  A
C685       C1471   1.447       .  S
C687        N688   1.369       .  A
C687        N692   1.366       .  A
C687       C1482   1.517       .  S
N688        C689   1.363       .  A
C689        N690   1.371       .  A
C689        C851   1.513       .  S
N690        C691   1.376       .  A
C691        N692   1.369       .  A
C691       C1975   1.516       .  S
C693        N694   1.369       .  A
C693        N698   1.366       .  A
C693       C1779   1.511       .  S
N694        C695   1.372       .  A
C695        N696   1.376       .  A
C695       C1149   1.524       .  S
N696        C697   1.371       .  A
C697        N698   1.361       .  A
C697        C887   1.511       .  S
C699        N700   1.344       .  A
C699        N704   1.354       .  A
C699       C1790   1.441       .  S
N700        C701   1.343       .  A
C701        N702   1.361       .  A
C701       C1135   1.469       .  S
N702        C703   1.356       .  A
C703        N704   1.354       .  A
C703        C841   1.457       .  S
C705        N706   1.364       .  A
C705        N710   1.370       .  A
C705       C1622   1.478       .  S
N706        C707   1.359       .  A
C707        N708   1.352       .  A
C707       C1104   1.486       .  S
N708        C709   1.346       .  A
C709        N710   1.359       .  A
C709        C783   1.472       .  S
C711        N712   1.372       .  A
C711        N716   1.351       .  A
C711       C1121   1.476       .  S
N712        C713   1.366       .  A
C713        N714   1.356       .  A
C713        C829   1.488       .  S
N714        C715   1.357       .  A
C715        N716   1.350       .  A
C715       C1611   1.472       .  S
C717        N718   1.353       .  A
C717        N722   1.352       .  A
C717        C981   1.491       .  S
N718        C719   1.361       .  A
C719        N720   1.367       .  A
C719       C1303   1.474       .  S
N720        C721   1.363       .  A
C721        N722   1.351       .  A
C721        C842   1.470       .  S
C723        N724   1.354       .  A
C723        N728   1.356       .  A
C723       C1314   1.489       .  S
N724        C725   1.354       .  A
C725        N726   1.371       .  A
C725        C852   1.489       .  S
N726        C727   1.376       .  A
C727        N728   1.361       .  A
C727        C967   1.487       .  S
C729        N730   1.351       .  A
C729        N734   1.351       .  A
C729        C953   1.471       .  S
N730        C731   1.350       .  A
C731        N732   1.361       .  A
C731       C1440   1.470       .  S
N732        C733   1.355       .  A
C733        N734   1.349       .  A
C733        C772   1.456       .  S
C735        N736   1.373       .  A
C735        N740   1.365       .  A
C735        C939   1.511       .  S
N736        C737   1.372       .  A
C737        N738   1.373       .  A
C737        C828   1.523       .  S
N738        C739   1.376       .  A
C739        N740   1.367       .  A
C739       C1457   1.520       .  S
C741        N742   1.357       .  A
C741        N746   1.380       .  A
C741       C1947   1.491       .  S
N742        C743   1.351       .  A
C743        N744   1.353       .  A
C743       C1289   1.487       .  S
N744        C745   1.353       .  A
C745        N746   1.373       .  A
C745        C817   1.493       .  S
C747        N748   1.356       .  A
C747        N752   1.367       .  A
C747       C1275   1.470       .  S
N748        C749   1.353       .  A
C749        N750   1.353       .  A
C749       C1961   1.486       .  S
N750        C751   1.350       .  A
C751        N752   1.361       .  A
C751        C773   1.471       .  S
N753        N754   1.331       .  A
N753        N759   1.315       .  A
N753       Mn782   2.249   1_455  S
N754        C761   1.361       .  A
N755        N757   1.314       .  A
N755        N756   1.331       .  A
N755       Mn771   2.221       .  S
N756        C762   1.356       .  A
N757        N758   1.320       .  A
N757       Mn782   2.218       .  S
N758        C762   1.355       .  A
N759        N760   1.330       .  A
N759       Mn771   2.252   1_455  S
N760        C761   1.362       .  A
N763        N769   1.319       .  A
N763        N764   1.318       .  A
N763       Mn793   2.195       .  S
N764        C772   1.349       .  A
N765        N766   1.315       .  A
N765        N767   1.319       .  A
N765       Mn771   2.200   1_455  S
N766        C773   1.350       .  A
N767        N768   1.327       .  A
N767       Mn793   2.225   1_455  S
N768        C773   1.355       .  A
N769        N770   1.320       .  A
N769       Mn771   2.192       .  S
N770        C772   1.346       .  A
Mn771      Cl795   2.553       .  S
N774        N775   1.327       .  A
N774        N780   1.318       .  A
N774       Mn782   2.220       .  S
N775        C783   1.354       .  A
N776        N778   1.319   1_655  A
N776        N777   1.321   1_655  A
N776       Mn794   2.191       .  S
N777        C784   1.346       .  A
N778        N779   1.319       .  A
N778       Mn782   2.206   1_455  S
N779        C784   1.351       .  A
N780        N781   1.317       .  A
N780       Mn794   2.205       .  S
N781        C783   1.351       .  A
Mn782      Cl795   2.548       .  S
N785        N786   1.320       .  A
N785        N791   1.315   1_455  A
N785       Mn793   2.223   1_455  S
N786        C796   1.356       .  A
N787        N788   1.329       .  A
N787        N789   1.314       .  A
N787       Mn794   2.242       .  S
N788        C797   1.361       .  A
N789        N790   1.330       .  A
N789       Mn793   2.246       .  S
N790        C797   1.360       .  A
N791        N792   1.333   1_655  A
N791       Mn794   2.230       .  S
N792        C796   1.358       .  A
Mn793      Cl795   2.548       .  S
Mn794      Cl795   2.555       .  S
N798        N799   1.326       .  A
N798        N804   1.320       .  A
N798       Mn827   2.235       .  S
N799        C806   1.356       .  A
N800        N802   1.319       .  A
N800        N801   1.319       .  A
N800       Mn816   2.199   1_556  S
N801        C807   1.348       .  A
N802        N803   1.315       .  A
N802       Mn827   2.173   1_556  S
N803        C807   1.345       .  A
N804        N805   1.318       .  A
N804       Mn816   2.204       .  S
N805        C806   1.350       .  A
N808        N814   1.313       .  A
N808        N809   1.319       .  A
N808       Mn838   2.217       .  S
N809        C817   1.355       .  A
N810        N811   1.332       .  A
N810        N812   1.316       .  A
N810       Mn816   2.263       .  S
N811        C818   1.364       .  A
N812        N813   1.331       .  A
N812       Mn838   2.248   1_554  S
N813        C818   1.361       .  A
N814        N815   1.333       .  A
N814       Mn816   2.228   1_556  S
N815        C817   1.359       .  A
Mn816      Cl840   2.557       .  S
N819        N820   1.333       .  A
N819        N825   1.316       .  A
N819       Mn827   2.267   1_556  S
N820        C828   1.364       .  A
N821        N823   1.314       .  A
N821        N822   1.331       .  A
N821       Mn839   2.237   1_554  S
N822        C829   1.361       .  A
N823        N824   1.319       .  A
N823       Mn827   2.203       .  S
N824        C829   1.352       .  A
N825        N826   1.331       .  A
N825       Mn839   2.253       .  S
N826        C828   1.362       .  A
Mn827      Cl840   2.556       .  S
N830        N831   1.317       .  A
N830        N836   1.319       .  A
N830       Mn838   2.192   1_554  S
N831        C841   1.348       .  A
N832        N833   1.316       .  A
N832        N834   1.319       .  A
N832       Mn839   2.209       .  S
N833        C842   1.351       .  A
N834        N835   1.327       .  A
N834       Mn838   2.215       .  S
N835        C842   1.353       .  A
N836        N837   1.321       .  A
N836       Mn839   2.207   1_554  S
N837        C841   1.351       .  A
Mn838      Cl840   2.556   1_556  S
Mn839      Cl840   2.555   1_556  S
N843        N844   1.330       .  A
N843        N849   1.316       .  A
N843       Mn872   2.256       .  S
N844        C851   1.363       .  A
N845        N847   1.314       .  A
N845        N846   1.318   1_545  A
N845       Mn861   2.206       .  S
N846        C852   1.353       .  A
N847        N848   1.332   1_545  A
N847       Mn872   2.233       .  S
N848        C852   1.359       .  A
N849        N850   1.331       .  A
N849       Mn861   2.243       .  S
N850        C851   1.359       .  A
N853        N859   1.319       .  A
N853        N854   1.320   1_545  A
N853       Mn883   2.216       .  S
N854        C862   1.353       .  A
N855        N856   1.316       .  A
N855        N857   1.318       .  A
N855       Mn861   2.181       .  S
N856        C863   1.346       .  A
N857        N858   1.319       .  A
N857       Mn883   2.195       .  S
N858        C863   1.348       .  A
N859        N860   1.326   1_545  A
N859       Mn861   2.220       .  S
N860        C862   1.354       .  A
Mn861      Cl885   2.550       .  S
N864        N865   1.322   1_545  A
N864        N870   1.319       .  A
N864       Mn872   2.207       .  S
N865        C873   1.350       .  A
N866        N868   1.319       .  A
N866        N867   1.325       .  A
N866       Mn884   2.221       .  S
N867        C874   1.353       .  A
N868        N869   1.321       .  A
N868       Mn872   2.221       .  S
N869        C874   1.354       .  A
N870        N871   1.317   1_545  A
N870       Mn884   2.190       .  S
N871        C873   1.347       .  A
Mn872      Cl885   2.556       .  S
N875        N876   1.333       .  A
N875        N881   1.314       .  A
N875       Mn883   2.233       .  S
N876        C886   1.359       .  A
N877        N878   1.331   1_545  A
N877        N879   1.315       .  A
N877       Mn884   2.244       .  S
N878        C887   1.360       .  A
N879        N880   1.329   1_545  A
N879       Mn883   2.250       .  S
N880        C887   1.362       .  A
N881        N882   1.318       .  A
N881       Mn884   2.213       .  S
N882        C886   1.354       .  A
Mn883      Cl885   2.555       .  S
Mn884      Cl885   2.549       .  S
O888        C915   1.259       .  A
O888       Mn914   2.030       .  S
C889       C1916   1.459       .  S
C889        O922   1.265       .  A
C889        O919   1.269       .  A
O890       Mn897   2.183       .  S
O890       Mn908   2.114       .  S
O890       Mn912   2.197       .  S
O890       Mn914   2.109       .  S
O891        C901   1.268       .  A
O891       Mn925   2.077       .  S
O892        C915   1.267       .  A
O892       Mn908   2.088       .  S
O893        C920   1.268       .  A
O893       Mn912   2.190       .  S
O894       Mn925   1.969       .  S
O894       Mn914   1.961       .  S
O894        C910   1.218       .  S
C895       C2154   1.514       .  S
C895        O898   1.274       .  A
C895        O921   1.240       .  A
O896       Mn916   2.104       .  S
O896       Mn897   2.185       .  S
O896       Mn930   2.124       .  S
O896       Mn912   2.171       .  S
Mn897       O926   2.199       .  S
Mn897       O902   2.182       .  S
Mn897       O929   2.187       .  S
Mn897       O903   2.176       .  S
O898       Mn912   2.193       .  S
O899        C901   1.266       .  A
O899       Mn906   2.070       .  S
C900       C1888   1.532       .  S
C900        O926   1.268       .  A
C900        O913   1.213       .  S
C901       C2255   1.454       .  S
O902        C927   1.270       .  A
O903       Mn906   2.099       .  S
O903       Mn925   2.094       .  S
O903       Mn912   2.174       .  S
O904       Mn908   1.953       .  S
O904       Mn930   1.958       .  S
O904        C927   1.219       .  S
C905       C2126   1.478       .  S
C905        O931   1.268       .  A
C905        O907   1.274       .  A
Mn906       O919   2.085       .  S
Mn906       O921   2.015       .  S
Mn906       O913   1.965       .  S
O907       Mn930   2.094       .  S
Mn908       O924   2.103       .  S
Mn908       O918   1.961       .  S
O909        C911   1.270       .  A
O909       Mn914   2.084       .  S
C910       C2227   1.527       .  S
C910        O928   1.264       .  A
C911       C1720   1.487       .  S
C911        O924   1.275       .  A
Mn912       O928   2.175       .  S
O913       Mn916   1.962       .  S
Mn914       O932   2.009       .  S
C915       C2199   1.457       .  S
Mn916       O923   2.028       .  S
Mn916       O931   2.069       .  S
Mn916       O921   2.020       .  S
C917       C2056   1.431       .  S
C917        O923   1.258       .  A
C917        O933   1.262       .  A
O918       Mn930   1.936       .  S
O918        C920   1.217       .  S
C920       C2171   1.526       .  S
O922       Mn925   2.069       .  S
Mn925       O932   2.010       .  S
C927       C2084   1.522       .  S
O929        C934   1.272       .  A
Mn930       O933   2.061       .  S
O932        C934   1.238       .  A
C934       C1748   1.506       .  S
C935        C936   1.417       .  A
C935        C940   1.412       .  A
C935        H942   1.083       .  S
C936        C937   1.422       .  A
C937        C938   1.427       .  A
C937        N944   1.434       .  S
C938        C939   1.413       .  A
C938        H943   1.083       .  S
C939        C940   1.411       .  A
C940        N941   1.437       .  S
N941        O945   1.263       .  A
N941        O946   1.262       .  A
N944        O948   1.262       .  A
N944        O947   1.262       .  A
C949        C950   1.404       .  A
C949        C954   1.381       .  A
C949        H956   1.084       .  S
C950        C951   1.405       .  A
C951        C952   1.397       .  A
C951        N958   1.429       .  S
C952        C953   1.410       .  A
C952        H957   1.084       .  S
C953        C954   1.414       .  A
C954        N955   1.432       .  S
N955        O959   1.260       .  A
N955        O960   1.263       .  A
N958        O962   1.262       .  A
N958        O961   1.261       .  A
C963        C964   1.408       .  A
C963        C968   1.424       .  A
C963        H970   1.083       .  S
C964        C965   1.431       .  A
C965        C966   1.396       .  A
C965        N972   1.434       .  S
C966        C967   1.390       .  A
C966        H971   1.085       .  S
C967        C968   1.421       .  A
C968        N969   1.437       .  S
N969        O973   1.263       .  A
N969        O974   1.262       .  A
N972        O976   1.263       .  A
N972        O975   1.263       .  A
C977        C978   1.406       .  A
C977        C982   1.406       .  A
C977        H984   1.084       .  S
C978        C979   1.417       .  A
C979        C980   1.392       .  A
C979        N986   1.437       .  S
C980        C981   1.405       .  A
C980        H985   1.083       .  S
C981        C982   1.418       .  A
C982        N983   1.432       .  S
N983        O987   1.262       .  A
N983        O988   1.262       .  A
N986        O990   1.262       .  A
N986        O989   1.263       .  A
C991        C992   1.414       .  A
C991        C996   1.430       .  A
C991        H998   1.083       .  S
C992        C993   1.434       .  A
C993        C994   1.413       .  A
C993       N1000   1.436       .  S
C994        C995   1.397       .  A
C994        H999   1.084       .  S
C995        C996   1.422       .  A
C996        N997   1.435       .  S
N997       O1001   1.262       .  A
N997       O1002   1.262       .  A
N1000      O1004   1.260       .  A
N1000      O1003   1.263       .  A
C1005      C1006   1.399       .  A
C1005      C1010   1.403       .  A
C1005      H1012   1.084       .  S
C1006      C1007   1.421       .  A
C1007      C1008   1.389       .  A
C1007      N1014   1.438       .  S
C1008      C1009   1.399       .  A
C1008      H1013   1.083       .  S
C1009      C1010   1.421       .  A
C1010      N1011   1.433       .  S
N1011      O1015   1.263       .  A
N1011      O1016   1.262       .  A
N1014      O1018   1.263       .  A
N1014      O1017   1.263       .  A
C1019      C1020   1.408       .  A
C1019      C1024   1.405       .  A
C1019      H1026   1.082       .  S
C1020      C1021   1.420       .  A
C1021      C1022   1.391       .  A
C1021      N1028   1.434       .  S
C1022      C1023   1.404       .  A
C1022      H1027   1.083       .  S
C1023      C1024   1.414       .  A
C1024      N1025   1.430       .  S
N1025      O1029   1.262       .  A
N1025      O1030   1.262       .  A
N1028      O1032   1.262       .  A
N1028      O1031   1.263       .  A
C1033      C1034   1.399       .  A
C1033      C1038   1.398       .  A
C1033      H1040   1.085       .  S
C1034      C1035   1.424       .  A
C1035      C1036   1.428       .  A
C1035      N1042   1.439       .  S
C1036      C1037   1.411       .  A
C1036      H1041   1.082       .  S
C1037      C1038   1.419       .  A
C1038      N1039   1.431       .  S
N1039      O1043   1.260       .  A
N1039      O1044   1.262       .  A
N1042      O1046   1.262       .  A
N1042      O1045   1.262       .  A
C1047      C1048   1.415       .  A
C1047      C1052   1.429       .  A
C1047      H1054   1.083       .  S
C1048      C1049   1.411       .  A
C1049      C1050   1.411       .  A
C1049      N1056   1.431       .  S
C1050      C1051   1.415       .  A
C1050      H1055   1.081       .  S
C1051      C1052   1.424       .  A
C1052      N1053   1.435       .  S
N1053      O1057   1.261       .  A
N1053      O1058   1.262       .  A
N1056      O1060   1.262       .  A
N1056      O1059   1.262       .  A
C1061      C1062   1.409       .  A
C1061      C1066   1.397       .  A
C1061      H1068   1.084   1_565  S
C1062      C1063   1.406       .  A
C1063      C1064   1.384       .  A
C1063      N1070   1.433       .  S
C1064      C1065   1.407       .  A
C1064      H1069   1.085       .  S
C1065      C1066   1.406       .  A
C1066      N1067   1.434       .  S
N1067      O1071   1.263       .  A
N1067      O1072   1.262       .  A
N1070      O1074   1.262       .  A
N1070      O1073   1.262       .  A
C1075      C1076   1.412       .  A
C1075      C1080   1.422       .  A
C1075      H1082   1.083       .  S
C1076      C1077   1.412       .  A
C1077      C1078   1.410       .  A
C1077      N1084   1.437       .  S
C1078      C1079   1.414       .  A
C1078      H1083   1.083       .  S
C1079      C1080   1.418       .  A
C1080      N1081   1.429       .  S
N1081      O1085   1.261       .  A
N1081      O1086   1.262       .  A
N1084      O1088   1.262       .  A
N1084      O1087   1.263       .  A
C1089      C1090   1.407       .  A
C1089      C1094   1.399       .  A
C1089      H1096   1.084       .  S
C1090      C1091   1.409       .  A
C1091      C1092   1.381       .  A
C1091      N1098   1.432       .  S
C1092      C1093   1.400       .  A
C1092      H1097   1.086       .  S
C1093      C1094   1.407       .  A
C1094      N1095   1.435       .  S
N1095      O1099   1.261       .  A
N1095      O1100   1.262       .  A
N1098      O1102   1.262       .  A
N1098      O1101   1.262       .  A
C1103      C1104   1.408       .  A
C1103      C1108   1.386       .  A
C1103      H1110   1.083       .  S
C1104      C1105   1.418       .  A
C1105      C1106   1.412       .  A
C1105      N1112   1.436       .  S
C1106      C1107   1.406       .  A
C1106      H1111   1.084       .  S
C1107      C1108   1.406       .  A
C1108      N1109   1.434       .  S
N1109      O1113   1.262       .  A
N1109      O1114   1.262       .  A
N1112      O1116   1.263       .  A
N1112      O1115   1.262       .  A
C1117      C1118   1.420       .  A
C1117      C1122   1.391       .  A
C1117      H1124   1.083       .  S
C1118      C1119   1.411       .  A
C1119      C1120   1.417       .  A
C1119      N1126   1.431       .  S
C1120      C1121   1.413       .  A
C1120      H1125   1.083       .  S
C1121      C1122   1.398       .  A
C1122      N1123   1.433       .  S
N1123      O1127   1.262       .  A
N1123      O1128   1.262       .  A
N1126      O1130   1.262       .  A
N1126      O1129   1.262       .  A
C1131      C1132   1.408       .  A
C1131      C1136   1.389       .  A
C1131      H1138   1.079       .  S
C1132      C1133   1.408       .  A
C1133      C1134   1.398       .  A
C1133      N1140   1.435       .  S
C1134      C1135   1.411       .  A
C1134      H1139   1.083       .  S
C1135      C1136   1.400       .  A
C1136      N1137   1.431       .  S
N1137      O1141   1.262       .  A
N1137      O1142   1.263       .  A
N1140      O1144   1.262       .  A
N1140      O1143   1.262       .  A
C1145      C1146   1.411       .  A
C1145      C1150   1.411       .  A
C1145      H1152   1.083       .  S
C1146      C1147   1.416       .  A
C1147      C1148   1.425       .  A
C1147      N1154   1.430       .  S
C1148      C1149   1.418       .  A
C1148      H1153   1.083       .  S
C1149      C1150   1.416       .  A
C1150      N1151   1.428       .  S
N1151      O1155   1.262       .  A
N1151      O1156   1.262       .  A
N1154      O1158   1.262       .  A
N1154      O1157   1.262       .  A
C1159      C1160   1.399       .  A
C1159      C1164   1.383       .  A
C1159      H1166   1.084       .  S
C1160      C1161   1.413       .  A
C1161      C1162   1.404       .  A
C1161      N1168   1.438       .  S
C1162      C1163   1.401       .  A
C1162      H1167   1.084       .  S
C1163      C1164   1.406       .  A
C1164      N1165   1.435       .  S
N1165      O1169   1.262       .  A
N1165      O1170   1.261       .  A
N1168      O1172   1.263       .  A
N1168      O1171   1.263       .  A
C1173      C1174   1.399       .  A
C1173      C1178   1.409       .  A
C1173      H1180   1.084       .  S
C1174      C1175   1.420       .  A
C1175      C1176   1.423       .  A
C1175      N1182   1.435       .  S
C1176      C1177   1.411       .  A
C1176      H1181   1.084       .  S
C1177      C1178   1.426       .  A
C1178      N1179   1.431       .  S
N1179      O1183   1.263       .  A
N1179      O1184   1.260       .  A
N1182      O1186   1.262       .  A
N1182      O1185   1.262       .  A
C1187      C1188   1.397       .  A
C1187      C1192   1.401       .  A
C1187      H1194   1.083       .  S
C1188      C1189   1.417       .  A
C1189      C1190   1.389       .  A
C1189      N1196   1.440       .  S
C1190      C1191   1.397       .  A
C1190      H1195   1.083       .  S
C1191      C1192   1.420       .  A
C1192      N1193   1.436       .  S
N1193      O1197   1.262       .  A
N1193      O1198   1.263       .  A
N1196      O1200   1.263       .  A
N1196      O1199   1.263       .  A
C1201      C1202   1.416       .  A
C1201      C1206   1.413       .  A
C1201      H1208   1.082       .  S
C1202      C1203   1.422       .  A
C1203      C1204   1.428       .  A
C1203      N1210   1.435       .  S
C1204      C1205   1.417       .  A
C1204      H1209   1.083       .  S
C1205      C1206   1.414       .  A
C1206      N1207   1.429       .  S
N1207      O1211   1.262       .  A
N1207      O1212   1.262       .  A
N1210      O1214   1.262       .  A
N1210      O1213   1.262       .  A
C1215      C1216   1.405       .  A
C1215      C1220   1.419       .  A
C1215      H1222   1.083       .  S
C1216      C1217   1.437       .  A
C1217      C1218   1.396       .  A
C1217      N1224   1.435       .  S
C1218      C1219   1.389       .  A
C1218      H1223   1.085       .  S
C1219      C1220   1.421       .  A
C1220      N1221   1.432       .  S
N1221      O1225   1.262   1_565  A
N1221      O1226   1.262       .  A
N1224      O1228   1.262       .  A
N1224      O1227   1.263       .  A
C1229      C1230   1.404   1_565  A
C1229      C1234   1.390       .  A
C1229      H1236   1.084       .  S
C1230      C1231   1.414       .  A
C1231      C1232   1.407   1_545  A
C1231      N1238   1.429       .  S
C1232      C1233   1.408       .  A
C1232      H1237   1.084       .  S
C1233      C1234   1.420       .  A
C1234      N1235   1.436       .  S
N1235      O1239   1.262       .  A
N1235      O1240   1.262       .  A
N1238      O1242   1.262       .  A
N1238      O1241   1.262       .  A
C1243      C1244   1.398       .  A
C1243      C1248   1.404       .  A
C1243      H1250   1.084       .  S
C1244      C1245   1.418       .  A
C1245      C1246   1.423       .  A
C1245      N1252   1.433       .  S
C1246      C1247   1.412       .  A
C1246      H1251   1.083       .  S
C1247      C1248   1.422       .  A
C1248      N1249   1.429       .  S
N1249      O1253   1.261       .  A
N1249      O1254   1.261       .  A
N1252      O1256   1.262       .  A
N1252      O1255   1.262       .  A
C1257      C1258   1.405       .  A
C1257      C1262   1.396       .  A
C1257      H1264   1.084       .  S
C1258      C1259   1.411       .  A
C1259      C1260   1.382       .  A
C1259      N1266   1.436       .  S
C1260      C1261   1.396       .  A
C1260      H1265   1.084       .  S
C1261      C1262   1.404       .  A
C1262      N1263   1.432       .  S
N1263      O1267   1.262       .  A
N1263      O1268   1.261       .  A
N1266      O1270   1.262       .  A
N1266      O1269   1.263       .  A
C1271      C1272   1.412       .  A
C1271      C1276   1.394       .  A
C1271      H1278   1.084       .  S
C1272      C1273   1.410       .  A
C1273      C1274   1.407       .  A
C1273      N1280   1.427       .  S
C1274      C1275   1.406       .  A
C1274      H1279   1.084       .  S
C1275      C1276   1.404       .  A
C1276      N1277   1.433       .  S
N1277      O1281   1.262       .  A
N1277      O1282   1.262       .  A
N1280      O1284   1.262       .  A
N1280      O1283   1.262       .  A
C1285      C1286   1.403       .  A
C1285      C1290   1.404       .  A
C1285      H1292   1.084       .  S
C1286      C1287   1.415       .  A
C1287      C1288   1.388       .  A
C1287      N1294   1.431       .  S
C1288      C1289   1.403       .  A
C1288      H1293   1.083       .  S
C1289      C1290   1.418       .  A
C1290      N1291   1.429       .  S
N1291      O1295   1.262       .  A
N1291      O1296   1.262       .  A
N1294      O1298   1.262       .  A
N1294      O1297   1.262       .  A
C1299      C1300   1.409       .  A
C1299      C1304   1.417       .  A
C1299      H1306   1.083       .  S
C1300      C1301   1.412       .  A
C1301      C1302   1.390       .  A
C1301      N1308   1.426       .  S
C1302      C1303   1.394       .  A
C1302      H1307   1.085       .  S
C1303      C1304   1.417       .  A
C1304      N1305   1.439       .  S
N1305      O1309   1.262       .  A
N1305      O1310   1.263       .  A
N1308      O1312   1.260       .  A
N1308      O1311   1.260       .  A
C1313      C1314   1.405       .  A
C1313      C1318   1.394       .  A
C1313      H1320   1.083       .  S
C1314      C1315   1.418       .  A
C1315      C1316   1.411       .  A
C1315      N1322   1.435       .  S
C1316      C1317   1.404       .  A
C1316      H1321   1.083       .  S
C1317      C1318   1.413       .  A
C1318      N1319   1.437       .  S
N1319      O1323   1.262       .  A
N1319      O1324   1.263       .  A
N1322      O1326   1.263       .  A
N1322      O1325   1.262       .  A
C1327      C1328   1.411       .  A
C1327      C1332   1.394       .  A
C1327      H1334   1.083       .  S
C1328      C1329   1.412       .  A
C1329      C1330   1.409       .  A
C1329      N1336   1.431       .  S
C1330      C1331   1.407       .  A
C1330      H1335   1.084       .  S
C1331      C1332   1.406       .  A
C1332      N1333   1.438       .  S
N1333      O1337   1.263       .  A
N1333      O1338   1.262       .  A
N1336      O1340   1.262       .  A
N1336      O1339   1.262       .  A
C1341      C1342   1.403       .  A
C1341      C1346   1.390       .  A
C1341      H1348   1.084       .  S
C1342      C1343   1.415       .  A
C1343      C1344   1.407       .  A
C1343      N1350   1.430       .  S
C1344      C1345   1.409       .  A
C1344      H1349   1.083       .  S
C1345      C1346   1.418       .  A
C1346      N1347   1.430       .  S
N1347      O1351   1.261       .  A
N1347      O1352   1.262       .  A
N1350      O1354   1.262       .  A
N1350      O1353   1.262       .  A
C1355      C1356   1.406       .  A
C1355      C1360   1.411       .  A
C1355      H1362   1.084       .  S
C1356      C1357   1.402       .  A
C1357      C1358   1.393       .  A
C1357      N1364   1.431       .  S
C1358      C1359   1.411       .  A
C1358      H1363   1.084       .  S
C1359      C1360   1.414       .  A
C1360      N1361   1.430       .  S
N1361      O1365   1.262       .  A
N1361      O1366   1.262       .  A
N1364      O1368   1.262       .  A
N1364      O1367   1.262       .  A
C1369      C1370   1.406       .  A
C1369      C1374   1.393       .  A
C1369      H1376   1.084       .  S
C1370      C1371   1.415       .  A
C1371      C1372   1.409       .  A
C1371      N1378   1.434       .  S
C1372      C1373   1.411       .  A
C1372      H1377   1.083   1_455  S
C1373      C1374   1.415       .  A
C1374      N1375   1.429       .  S
N1375      O1379   1.261       .  A
N1375      O1380   1.262       .  A
N1378      O1382   1.262       .  A
N1378      O1381   1.262       .  A
C1383      C1384   1.409       .  A
C1383      C1388   1.404   1_545  A
C1383      H1390   1.083       .  S
C1384      C1385   1.416   1_545  A
C1385      C1386   1.382       .  A
C1385      N1392   1.431       .  S
C1386      C1387   1.400       .  A
C1386      H1391   1.084       .  S
C1387      C1388   1.412       .  A
C1388      N1389   1.435       .  S
N1389      O1393   1.262       .  A
N1389      O1394   1.262       .  A
N1392      O1396   1.262       .  A
N1392      O1395   1.262       .  A
C1397      C1398   1.391       .  A
C1397      C1402   1.391       .  A
C1397      H1404   1.085       .  S
C1398      C1399   1.413       .  A
C1399      C1400   1.414       .  A
C1399      N1406   1.435       .  S
C1400      C1401   1.407       .  A
C1400      H1405   1.083       .  S
C1401      C1402   1.424       .  A
C1402      N1403   1.435       .  S
N1403      O1407   1.262       .  A
N1403      O1408   1.261       .  A
N1406      O1410   1.262       .  A
N1406      O1409   1.263       .  A
C1411      C1412   1.392       .  A
C1411      C1416   1.394       .  A
C1411      H1418   1.085       .  S
C1412      C1413   1.414       .  A
C1413      C1414   1.413       .  A
C1413      N1420   1.433       .  S
C1414      C1415   1.408       .  A
C1414      H1419   1.083       .  S
C1415      C1416   1.422       .  A
C1416      N1417   1.429       .  S
N1417      O1421   1.262       .  A
N1417      O1422   1.263       .  A
N1420      O1424   1.262       .  A
N1420      O1423   1.262       .  A
C1425      C1426   1.405       .  A
C1425      C1430   1.394       .  A
C1425      H1432   1.083       .  S
C1426      C1427   1.419       .  A
C1427      C1428   1.412       .  A
C1427      N1434   1.432       .  S
C1428      C1429   1.405       .  A
C1428      H1433   1.084       .  S
C1429      C1430   1.415       .  A
C1430      N1431   1.436       .  S
N1431      O1435   1.262       .  A
N1431      O1436   1.262       .  A
N1434      O1438   1.262       .  A
N1434      O1437   1.261       .  A
C1439      C1440   1.399       .  A
C1439      C1444   1.389       .  A
C1439      H1446   1.083       .  S
C1440      C1441   1.419       .  A
C1441      C1442   1.401       .  A
C1441      N1448   1.435       .  S
C1442      C1443   1.397       .  A
C1442      H1447   1.084       .  S
C1443      C1444   1.415       .  A
C1444      N1445   1.439       .  S
N1445      O1449   1.263       .  A
N1445      O1450   1.262       .  A
N1448      O1452   1.263       .  A
N1448      O1451   1.262       .  A
C1453      C1454   1.415       .  A
C1453      C1458   1.411       .  A
C1453      H1460   1.084       .  S
C1454      C1455   1.416       .  A
C1455      C1456   1.425       .  A
C1455      N1462   1.431       .  S
C1456      C1457   1.417       .  A
C1456      H1461   1.083       .  S
C1457      C1458   1.413       .  A
C1458      N1459   1.429       .  S
N1459      O1463   1.262       .  A
N1459      O1464   1.262       .  A
N1462      O1466   1.262       .  A
N1462      O1465   1.262       .  A
C1467      C1468   1.400       .  A
C1467      C1472   1.397       .  A
C1467      H1474   1.084       .  S
C1468      C1469   1.406       .  A
C1469      C1470   1.388       .  A
C1469      N1476   1.441       .  S
C1470      C1471   1.399       .  A
C1470      H1475   1.084       .  S
C1471      C1472   1.407       .  A
C1472      N1473   1.434       .  S
N1473      O1477   1.263       .  A
N1473      O1478   1.262       .  A
N1476      O1480   1.263       .  A
N1476      O1479   1.263       .  A
C1481      C1482   1.399       .  A
C1481      C1486   1.402       .  A
C1481      H1488   1.084       .  S
C1482      C1483   1.424       .  A
C1483      C1484   1.427       .  A
C1483      N1490   1.432       .  S
C1484      C1485   1.412       .  A
C1484      H1489   1.084       .  S
C1485      C1486   1.433       .  A
C1486      N1487   1.434       .  S
N1487      O1491   1.258       .  A
N1487      O1492   1.263       .  A
N1490      O1494   1.262       .  A
N1490      O1493   1.262       .  A
C1495      C1496   1.403       .  A
C1495      C1500   1.402       .  A
C1495      H1502   1.041       .  S
C1496      C1497   1.407       .  A
C1497      C1498   1.404       .  A
C1497      N1504   1.429       .  S
C1498      C1499   1.407       .  A
C1498      H1503   1.080       .  S
C1499      C1500   1.407       .  A
C1500      N1501   1.434       .  S
N1501      O1505   1.262       .  A
N1501      O1506   1.262       .  A
N1504      O1508   1.262       .  A
N1504      O1507   1.262       .  A
C1509      C1510   1.407       .  A
C1509      C1514   1.423       .  A
C1509      H1516   1.083       .  S
C1510      C1511   1.428       .  A
C1511      C1512   1.398       .  A
C1511      N1518   1.427       .  S
C1512      C1513   1.391       .  A
C1512      H1517   1.085       .  S
C1513      C1514   1.423       .  A
C1514      N1515   1.433       .  S
N1515      O1519   1.262       .  A
N1515      O1520   1.262       .  A
N1518      O1522   1.262       .  A
N1518      O1521   1.262       .  A
C1523      C1524   1.407       .  A
C1523      C1528   1.378       .  A
C1523      H1530   1.084       .  S
C1524      C1525   1.409       .  A
C1525      C1526   1.398       .  A
C1525      N1532   1.434       .  S
C1526      C1527   1.411       .  A
C1526      H1531   1.084       .  S
C1527      C1528   1.409       .  A
C1528      N1529   1.431       .  S
N1529      O1533   1.262       .  A
N1529      O1534   1.259       .  A
N1532      O1536   1.262       .  A
N1532      O1535   1.262       .  A
C1537      C1538   1.416       .  A
C1537      C1542   1.431       .  A
C1537      H1544   1.083       .  S
C1538      C1539   1.437       .  A
C1539      C1540   1.408       .  A
C1539      N1546   1.434       .  S
C1540      C1541   1.395       .  A
C1540      H1545   1.084       .  S
C1541      C1542   1.422       .  A
C1542      N1543   1.435       .  S
N1543      O1547   1.262       .  A
N1543      O1548   1.262       .  A
N1546      O1550   1.259       .  A
N1546      O1549   1.263       .  A
C1551      C1552   1.409       .  A
C1551      C1556   1.403       .  A
C1551      H1558   1.084       .  S
C1552      C1553   1.409       .  A
C1553      C1554   1.384       .  A
C1553      N1560   1.432       .  S
C1554      C1555   1.407       .  A
C1554      H1559   1.084       .  S
C1555      C1556   1.410       .  A
C1556      N1557   1.433       .  S
N1557      O1561   1.262       .  A
N1557      O1562   1.262       .  A
N1560      O1564   1.261       .  A
N1560      O1563   1.262       .  A
C1565      C1566   1.414       .  A
C1565      C1570   1.413       .  A
C1565      H1572   1.069       .  S
C1566      C1567   1.422       .  A
C1567      C1568   1.431       .  A
C1567      N1574   1.431       .  S
C1568      C1569   1.416       .  A
C1568      H1573   1.083       .  S
C1569      C1570   1.410       .  A
C1570      N1571   1.436       .  S
N1571      O1575   1.262       .  A
N1571      O1576   1.263       .  A
N1574      O1578   1.261       .  A
N1574      O1577   1.262       .  A
C1579      C1580   1.418       .  A
C1579      C1584   1.401       .  A
C1579      H1586   1.083       .  S
C1580      C1581   1.414       .  A
C1581      C1582   1.422       .  A
C1581      N1588   1.433       .  S
C1582      C1583   1.415       .  A
C1582      H1587   1.083       .  S
C1583      C1584   1.406       .  A
C1584      N1585   1.436       .  S
N1585      O1589   1.262       .  A
N1585      O1590   1.263       .  A
N1588      O1592   1.262       .  A
N1588      O1591   1.262       .  A
C1593      C1594   1.403       .  A
C1593      C1598   1.401       .  A
C1593      H1600   1.084       .  S
C1594      C1595   1.413       .  A
C1595      C1596   1.397       .  A
C1595      N1602   1.435       .  S
C1596      C1597   1.403       .  A
C1596      H1601   1.081       .  S
C1597      C1598   1.418       .  A
C1598      N1599   1.433       .  S
N1599      O1603   1.263       .  A
N1599      O1604   1.262       .  A
N1602      O1606   1.263       .  A
N1602      O1605   1.262       .  A
C1607      C1608   1.404       .  A
C1607      C1612   1.393       .  A
C1607      H1614   1.079       .  S
C1608      C1609   1.415       .  A
C1609      C1610   1.402       .  A
C1609      N1616   1.435       .  S
C1610      C1611   1.405       .  A
C1610      H1615   1.084       .  S
C1611      C1612   1.406       .  A
C1612      N1613   1.432       .  S
N1613      O1617   1.262       .  A
N1613      O1618   1.263       .  A
N1616      O1620   1.262       .  A
N1616      O1619   1.263       .  A
C1621      C1622   1.389       .  A
C1621      C1626   1.390       .  A
C1621      H1628   1.085       .  S
C1622      C1623   1.416       .  A
C1623      C1624   1.417       .  A
C1623      N1630   1.436       .  S
C1624      C1625   1.410       .  A
C1624      H1629   1.083       .  S
C1625      C1626   1.419       .  A
C1626      N1627   1.422       .  S
N1627      O1631   1.261       .  A
N1627      O1632   1.262       .  A
N1630      O1634   1.262       .  A
N1630      O1633   1.263       .  A
C1635      C1636   1.407       .  A
C1635      C1640   1.392       .  A
C1635      H1642   1.083       .  S
C1636      C1637   1.417       .  A
C1637      C1638   1.412       .  A
C1637      N1644   1.435       .  S
C1638      C1639   1.406       .  A
C1638      H1643   1.084       .  S
C1639      C1640   1.410       .  A
C1640      N1641   1.438       .  S
N1641      O1645   1.263       .  A
N1641      O1646   1.262       .  A
N1644      O1648   1.262       .  A
N1644      O1647   1.262       .  A
C1649      C1650   1.411       .  A
C1649      C1654   1.417       .  A
C1649      H1656   1.083       .  S
C1650      C1651   1.417       .  A
C1651      C1652   1.390       .  A
C1651      N1658   1.417       .  S
C1652      C1653   1.387       .  A
C1652      H1657   1.085       .  S
C1653      C1654   1.413       .  A
C1654      N1655   1.428       .  S
N1655      O1659   1.262       .  A
N1655      O1660   1.262       .  A
N1658      O1662   1.262       .  A
N1658      O1661   1.261       .  A
C1663      C1664   1.404       .  A
C1663      C1668   1.386       .  A
C1663      H1670   1.084       .  S
C1664      C1665   1.410       .  A
C1665      C1666   1.408       .  A
C1665      N1672   1.429       .  S
C1666      C1667   1.412       .  A
C1666      H1671   1.083       .  S
C1667      C1668   1.416       .  A
C1668      N1669   1.430       .  S
N1669      O1673   1.262       .  A
N1669      O1674   1.261       .  A
N1672      O1676   1.262       .  A
N1672      O1675   1.262       .  A
C1677      C1678   1.409       .  A
C1677      C1682   1.416       .  A
C1677      H1684   1.083       .  S
C1678      C1679   1.419       .  A
C1679      C1680   1.390       .  A
C1679      N1686   1.422       .  S
C1680      C1681   1.390       .  A
C1680      H1685   1.085       .  S
C1681      C1682   1.417       .  A
C1682      N1683   1.435       .  S
N1683      O1687   1.262       .  A
N1683      O1688   1.262       .  A
N1686      O1690   1.261       .  A
N1686      O1689   1.261       .  A
C1691      C1692   1.403       .  A
C1691      C1696   1.392       .  A
C1691      H1698   1.084       .  S
C1692      C1693   1.414       .  A
C1693      C1694   1.405       .  A
C1693      N1700   1.429       .  S
C1694      C1695   1.408       .  A
C1694      H1699   1.083       .  S
C1695      C1696   1.420       .  A
C1696      N1697   1.431       .  S
N1697      O1701   1.262       .  A
N1697      O1702   1.261       .  A
N1700      O1704   1.261       .  A
N1700      O1703   1.262       .  A
C1705      C1706   1.407       .  A
C1705      C1710   1.411       .  A
C1705      H1712   1.084       .  S
C1706      C1707   1.407       .  A
C1707      C1708   1.396       .  A
C1707      N1714   1.438       .  S
C1708      C1709   1.412       .  A
C1708      H1713   1.083       .  S
C1709      C1710   1.416       .  A
C1710      N1711   1.434       .  S
N1711      O1715   1.262       .  A
N1711      O1716   1.262       .  A
N1714      O1718   1.263       .  A
N1714      O1717   1.263       .  A
C1719      C1720   1.405       .  A
C1719      C1724   1.396       .  A
C1719      H1726   1.078       .  S
C1720      C1721   1.418       .  A
C1721      C1722   1.406       .  A
C1721      N1728   1.434       .  S
C1722      C1723   1.406       .  A
C1722      H1727   1.084   1_455  S
C1723      C1724   1.407       .  A
C1724      N1725   1.434       .  S
N1725      O1729   1.261       .  A
N1725      O1730   1.263       .  A
N1728      O1732   1.262       .  A
N1728      O1731   1.262       .  A
C1733      C1734   1.389       .  A
C1733      C1738   1.392       .  A
C1733      H1740   1.085       .  S
C1734      C1735   1.416       .  A
C1735      C1736   1.417       .  A
C1735      N1742   1.433       .  S
C1736      C1737   1.409       .  A
C1736      H1741   1.083       .  S
C1737      C1738   1.418       .  A
C1738      N1739   1.419       .  S
N1739      O1743   1.261       .  A
N1739      O1744   1.262       .  A
N1742      O1746   1.262       .  A
N1742      O1745   1.262       .  A
C1747      C1748   1.417       .  A
C1747      C1752   1.392       .  A
C1747      H1754   1.081       .  S
C1748      C1749   1.414       .  A
C1749      C1750   1.422       .  A
C1749      N1756   1.436       .  S
C1750      C1751   1.418       .  A
C1750      H1755   1.083       .  S
C1751      C1752   1.402       .  A
C1752      N1753   1.434       .  S
N1753      O1757   1.262       .  A
N1753      O1758   1.263       .  A
N1756      O1760   1.262       .  A
N1756      O1759   1.262       .  A
C1761      C1762   1.409       .  A
C1761      C1766   1.407       .  A
C1761      H1768   1.083       .  S
C1762      C1763   1.418       .  A
C1763      C1764   1.386       .  A
C1763      N1770   1.431       .  S
C1764      C1765   1.399       .  A
C1764      H1769   1.084       .  S
C1765      C1766   1.411       .  A
C1766      N1767   1.433       .  S
N1767      O1771   1.262       .  A
N1767      O1772   1.263       .  A
N1770      O1774   1.262       .  A
N1770      O1773   1.262       .  A
C1775      C1776   1.413       .  A
C1775      C1780   1.426       .  A
C1775      H1782   1.083       .  S
C1776      C1777   1.423       .  A
C1777      C1778   1.402       .  A
C1777      N1784   1.428       .  S
C1778      C1779   1.400       .  A
C1778      H1783   1.084       .  S
C1779      C1780   1.420       .  A
C1780      N1781   1.431       .  S
N1781      O1785   1.262       .  A
N1781      O1786   1.262       .  A
N1784      O1788   1.261       .  A
N1784      O1787   1.262       .  A
C1789      C1790   1.398       .  A
C1789      C1794   1.382       .  A
C1789      H1796   1.085       .  S
C1790      C1791   1.410       .  A
C1791      C1792   1.397       .  A
C1791      N1798   1.437       .  S
C1792      C1793   1.399       .  A
C1792      H1797   1.085       .  S
C1793      C1794   1.403       .  A
C1794      N1795   1.431       .  S
N1795      O1799   1.262       .  A
N1795      O1800   1.262       .  A
N1798      O1802   1.263       .  A
N1798      O1801   1.263       .  A
C1803      C1804   1.418       .  A
C1803      C1808   1.400       .  A
C1803      H1810   1.079       .  S
C1804      C1805   1.413       .  A
C1805      C1806   1.424       .  A
C1805      N1812   1.434       .  S
C1806      C1807   1.421       .  A
C1806      H1811   1.083       .  S
C1807      C1808   1.407       .  A
C1808      N1809   1.434       .  S
N1809      O1813   1.263       .  A
N1809      O1814   1.262       .  A
N1812      O1816   1.262       .  A
N1812      O1815   1.262       .  A
C1817      C1818   1.406       .  A
C1817      C1822   1.394       .  A
C1817      H1824   1.079       .  S
C1818      C1819   1.415       .  A
C1819      C1820   1.404       .  A
C1819      N1826   1.434       .  S
C1820      C1821   1.407       .  A
C1820      H1825   1.084       .  S
C1821      C1822   1.407       .  A
C1822      N1823   1.435       .  S
N1823      O1827   1.262       .  A
N1823      O1828   1.263       .  A
N1826      O1830   1.262       .  A
N1826      O1829   1.262       .  A
C1831      C1832   1.410       .  A
C1831      C1836   1.426       .  A
C1831      H1838   1.083       .  S
C1832      C1833   1.430       .  A
C1833      C1834   1.410       .  A
C1833      N1840   1.432       .  S
C1834      C1835   1.400       .  A
C1834      H1839   1.084       .  S
C1835      C1836   1.424       .  A
C1836      N1837   1.437       .  S
N1837      O1841   1.263       .  A
N1837      O1842   1.263       .  A
N1840      O1844   1.262       .  A
N1840      O1843   1.262       .  A
C1845      C1846   1.405       .  A
C1845      C1850   1.381       .  A
C1845      H1852   1.082       .  S
C1846      C1847   1.404       .  A
C1847      C1848   1.397       .  A
C1847      N1854   1.429       .  S
C1848      C1849   1.411       .  A
C1848      H1853   1.084       .  S
C1849      C1850   1.410       .  A
C1850      N1851   1.433       .  S
N1851      O1855   1.262       .  A
N1851      O1856   1.263       .  A
N1854      O1858   1.262       .  A
N1854      O1857   1.262       .  A
C1859      C1860   1.407       .  A
C1859      C1864   1.423       .  A
C1859      H1866   1.083       .  S
C1860      C1861   1.436       .  A
C1861      C1862   1.397       .  A
C1861      N1868   1.434       .  S
C1862      C1863   1.389       .  A
C1862      H1867   1.085       .  S
C1863      C1864   1.423       .  A
C1864      N1865   1.435       .  S
N1865      O1869   1.262       .  A
N1865      O1870   1.263       .  A
N1868      O1872   1.263       .  A
N1868      O1871   1.262       .  A
C1873      C1874   1.406       .  A
C1873      C1878   1.395       .  A
C1873      H1880   1.083       .  S
C1874      C1875   1.415       .  A
C1875      C1876   1.407       .  A
C1875      N1882   1.430       .  S
C1876      C1877   1.407       .  A
C1876      H1881   1.084       .  S
C1877      C1878   1.419       .  A
C1878      N1879   1.437       .  S
N1879      O1883   1.262       .  A
N1879      O1884   1.262       .  A
N1882      O1886   1.262       .  A
N1882      O1885   1.262       .  A
C1887      C1888   1.411       .  A
C1887      C1892   1.425       .  A
C1887      H1894   1.083       .  S
C1888      C1889   1.431       .  A
C1889      C1890   1.416       .  A
C1889      N1896   1.432       .  S
C1890      C1891   1.403       .  A
C1890      H1895   1.084       .  S
C1891      C1892   1.423       .  A
C1892      N1893   1.429       .  S
N1893      O1897   1.262       .  A
N1893      O1898   1.262       .  A
N1896      O1900   1.262       .  A
N1896      O1899   1.262       .  A
C1901      C1902   1.414       .  A
C1901      C1906   1.428       .  A
C1901      H1908   1.083       .  S
C1902      C1903   1.410       .  A
C1903      C1904   1.411       .  A
C1903      N1910   1.432       .  S
C1904      C1905   1.414       .  A
C1904      H1909   1.080       .  S
C1905      C1906   1.421       .  A
C1906      N1907   1.431       .  S
N1907      O1911   1.262       .  A
N1907      O1912   1.262       .  A
N1910      O1914   1.262       .  A
N1910      O1913   1.262   1_565  A
C1915      C1916   1.403       .  A
C1915      C1920   1.387       .  A
C1915      H1922   1.085       .  S
C1916      C1917   1.405       .  A
C1917      C1918   1.400       .  A
C1917      N1924   1.431       .  S
C1918      C1919   1.408       .  A
C1918      H1923   1.084       .  S
C1919      C1920   1.409       .  A
C1920      N1921   1.436       .  S
N1921      O1925   1.263       .  A
N1921      O1926   1.262       .  A
N1924      O1928   1.262       .  A
N1924      O1927   1.262       .  A
C1929      C1930   1.402       .  A
C1929      C1934   1.385       .  A
C1929      H1936   1.083       .  S
C1930      C1931   1.414       .  A
C1931      C1932   1.399       .  A
C1931      N1938   1.435   1_565  S
C1932      C1933   1.399       .  A
C1932      H1937   1.084       .  S
C1933      C1934   1.411       .  A
C1934      N1935   1.442       .  S
N1935      O1939   1.263       .  A
N1935      O1940   1.263       .  A
N1938      O1942   1.262       .  A
N1938      O1941   1.263       .  A
C1943      C1944   1.419       .  A
C1943      C1948   1.398       .  A
C1943      H1950   1.082       .  S
C1944      C1945   1.413       .  A
C1945      C1946   1.420       .  A
C1945      N1952   1.435       .  S
C1946      C1947   1.417       .  A
C1946      H1951   1.084       .  S
C1947      C1948   1.404       .  A
C1948      N1949   1.436       .  S
N1949      O1953   1.262       .  A
N1949      O1954   1.262       .  A
N1952      O1956   1.262       .  A
N1952      O1955   1.262       .  A
C1957      C1958   1.405       .  A
C1957      C1962   1.403       .  A
C1957      H1964   1.083       .  S
C1958      C1959   1.418       .  A
C1959      C1960   1.389       .  A
C1959      N1966   1.434       .  S
C1960      C1961   1.404       .  A
C1960      H1965   1.083       .  S
C1961      C1962   1.416       .  A
C1962      N1963   1.431       .  S
N1963      O1967   1.262       .  A
N1963      O1968   1.262       .  A
N1966      O1970   1.262       .  A
N1966      O1969   1.263       .  A
C1971      C1972   1.416       .  A
C1971      C1976   1.409       .  A
C1971      H1978   1.084       .  S
C1972      C1973   1.424       .  A
C1973      C1974   1.427       .  A
C1973      N1980   1.437       .  S
C1974      C1975   1.413       .  A
C1974      H1979   1.083       .  S
C1975      C1976   1.411       .  A
C1976      N1977   1.430       .  S
N1977      O1981   1.262       .  A
N1977      O1982   1.262       .  A
N1980      O1984   1.262       .  A
N1980      O1983   1.263       .  A
C1985      C1986   1.403       .  A
C1985      C1990   1.384       .  A
C1985      H1992   1.085       .  S
C1986      C1987   1.406       .  A
C1987      C1988   1.399       .  A
C1987      N1994   1.432       .  S
C1988      C1989   1.406       .  A
C1988      H1993   1.084       .  S
C1989      C1990   1.408       .  A
C1990      N1991   1.431       .  S
N1991      O1995   1.262       .  A
N1991      O1996   1.262       .  A
N1994      O1998   1.262       .  A
N1994      O1997   1.262       .  A
C1999      C2000   1.415       .  A
C1999      C2004   1.420       .  A
C1999      H2006   1.083       .  S
C2000      C2001   1.398       .  A
C2001      C2002   1.393       .  A
C2001      N2008   1.431       .  S
C2002      C2003   1.420       .  A
C2002      H2007   1.083       .  S
C2003      C2004   1.411       .  A
C2004      N2005   1.430       .  S
N2005      O2009   1.262       .  A
N2005      O2010   1.262       .  A
N2008      O2012   1.262       .  A
N2008      O2011   1.262       .  A
C2013      C2014   1.403       .  A
C2013      C2018   1.390       .  A
C2013      H2020   1.084       .  S
C2014      C2015   1.418       .  A
C2015      C2016   1.406       .  A
C2015      N2022   1.433       .  S
C2016      C2017   1.405       .  A
C2016      H2021   1.084       .  S
C2017      C2018   1.420       .  A
C2018      N2019   1.437       .  S
N2019      O2023   1.263       .  A
N2019      O2024   1.262       .  A
N2022      O2026   1.262       .  A
N2022      O2025   1.262       .  A
C2027      C2028   1.409       .  A
C2027      C2032   1.422       .  A
C2027      H2034   1.083       .  S
C2028      C2029   1.408       .  A
C2029      C2030   1.405       .  A
C2029      N2036   1.432       .  S
C2030      C2031   1.412       .  A
C2030      H2035   1.083       .  S
C2031      C2032   1.421       .  A
C2032      N2033   1.433       .  S
N2033      O2037   1.262       .  A
N2033      O2038   1.262       .  A
N2036      O2040   1.262       .  A
N2036      O2039   1.262       .  A
C2041      C2042   1.396       .  A
C2041      C2046   1.382       .  A
C2041      H2048   1.085       .  S
C2042      C2043   1.407       .  A
C2043      C2044   1.397       .  A
C2043      N2050   1.430       .  S
C2044      C2045   1.400       .  A
C2044      H2049   1.084       .  S
C2045      C2046   1.410       .  A
C2046      N2047   1.430       .  S
N2047      O2051   1.262       .  A
N2047      O2052   1.262       .  A
N2050      O2054   1.261       .  A
N2050      O2053   1.262       .  A
C2055      C2056   1.396       .  A
C2055      C2060   1.393       .  A
C2055      H2062   1.085       .  S
C2056      C2057   1.408       .  A
C2057      C2058   1.386       .  A
C2057      N2064   1.443       .  S
C2058      C2059   1.398       .  A
C2058      H2063   1.084       .  S
C2059      C2060   1.410       .  A
C2060      N2061   1.437       .  S
N2061      O2065   1.263       .  A
N2061      O2066   1.263       .  A
N2064      O2068   1.263       .  A
N2064      O2067   1.263       .  A
C2069      C2070   1.410       .  A
C2069      C2074   1.400       .  A
C2069      H2076   1.084       .  S
C2070      C2071   1.396       .  A
C2071      C2072   1.385       .  A
C2071      N2078   1.428       .  S
C2072      C2073   1.405       .  A
C2072      H2077   1.077       .  S
C2073      C2074   1.409       .  A
C2074      N2075   1.434       .  S
N2075      O2079   1.262       .  A
N2075      O2080   1.263       .  A
N2078      O2082   1.262       .  A
N2078      O2081   1.263       .  A
C2083      C2084   1.411       .  A
C2083      C2088   1.427       .  A
C2083      H2090   1.083       .  S
C2084      C2085   1.425       .  A
C2085      C2086   1.404       .  A
C2085      N2092   1.428       .  S
C2086      C2087   1.401       .  A
C2086      H2091   1.084       .  S
C2087      C2088   1.424       .  A
C2088      N2089   1.431       .  S
N2089      O2093   1.263       .  A
N2089      O2094   1.262       .  A
N2092      O2096   1.262       .  A
N2092      O2095   1.260       .  A
C2097      C2098   1.409       .  A
C2097      C2102   1.427       .  A
C2097      H2104   1.083       .  S
C2098      C2099   1.430       .  A
C2099      C2100   1.412       .  A
C2099      N2106   1.433       .  S
C2100      C2101   1.403       .  A
C2100      H2105   1.084       .  S
C2101      C2102   1.426       .  A
C2102      N2103   1.432       .  S
N2103      O2107   1.262       .  A
N2103      O2108   1.263       .  A
N2106      O2110   1.262       .  A
N2106      O2109   1.263       .  A
C2111      C2112   1.406       .  A
C2111      C2116   1.410       .  A
C2111      H2118   1.084       .  S
C2112      C2113   1.402       .  A
C2113      C2114   1.390       .  A
C2113      N2120   1.435       .  S
C2114      C2115   1.414       .  A
C2114      H2119   1.083       .  S
C2115      C2116   1.414       .  A
C2116      N2117   1.433       .  S
N2117      O2121   1.262       .  A
N2117      O2122   1.262       .  A
N2120      O2124   1.262       .  A
N2120      O2123   1.262       .  A
C2125      C2126   1.404       .  A
C2125      C2130   1.394       .  A
C2125      H2132   1.078       .  S
C2126      C2127   1.414       .  A
C2127      C2128   1.398       .  A
C2127      N2134   1.431       .  S
C2128      C2129   1.405       .  A
C2128      H2133   1.084       .  S
C2129      C2130   1.407       .  A
C2130      N2131   1.433       .  S
N2131      O2135   1.261       .  A
N2131      O2136   1.263       .  A
N2134      O2138   1.262       .  A
N2134      O2137   1.262       .  A
C2139      C2140   1.401       .  A
C2139      C2144   1.391       .  A
C2139      H2146   1.084       .  S
C2140      C2141   1.413       .  A
C2141      C2142   1.408       .  A
C2141      N2148   1.429       .  S
C2142      C2143   1.410       .  A
C2142      H2147   1.083       .  S
C2143      C2144   1.420       .  A
C2144      N2145   1.431       .  S
N2145      O2149   1.262       .  A
N2145      O2150   1.261       .  A
N2148      O2152   1.262       .  A
N2148      O2151   1.262       .  A
C2153      C2154   1.418       .  A
C2153      C2158   1.398       .  A
C2153      H2160   1.081       .  S
C2154      C2155   1.417       .  A
C2155      C2156   1.426       .  A
C2155      N2162   1.437       .  S
C2156      C2157   1.418       .  A
C2156      H2161   1.083       .  S
C2157      C2158   1.404       .  A
C2158      N2159   1.435       .  S
N2159      O2163   1.262       .  A
N2159      O2164   1.263       .  A
N2162      O2166   1.262       .  A
N2162      O2165   1.263       .  A
C2167      C2168   1.417       .  A
C2167      C2172   1.429       .  A
C2167      H2174   1.083       .  S
C2168      C2169   1.413       .  A
C2169      C2170   1.407       .  A
C2169      N2176   1.436       .  S
C2170      C2171   1.414       .  A
C2170      H2175   1.079       .  S
C2171      C2172   1.419       .  A
C2172      N2173   1.432       .  S
N2173      O2177   1.262       .  A
N2173      O2178   1.262       .  A
N2176      O2180   1.263       .  A
N2176      O2179   1.262       .  A
C2181      C2182   1.415       .  A
C2181      C2186   1.424       .  A
C2181      H2188   1.083       .  S
C2182      C2183   1.416       .  A
C2183      C2184   1.412       .  A
C2183      N2190   1.428       .  S
C2184      C2185   1.412       .  A
C2184      H2189   1.083       .  S
C2185      C2186   1.420       .  A
C2186      N2187   1.435       .  S
N2187      O2191   1.262       .  A
N2187      O2192   1.262       .  A
N2190      O2194   1.262       .  A
N2190      O2193   1.262       .  A
C2195      C2196   1.402       .  A
C2195      C2200   1.385       .  A
C2195      H2202   1.083       .  S
C2196      C2197   1.417       .  A
C2197      C2198   1.402       .  A
C2197      N2204   1.437       .  S
C2198      C2199   1.400       .  A
C2198      H2203   1.084       .  S
C2199      C2200   1.411       .  A
C2200      N2201   1.439       .  S
N2201      O2205   1.263       .  A
N2201      O2206   1.263       .  A
N2204      O2208   1.263       .  A
N2204      O2207   1.263       .  A
C2209      C2210   1.396       .  A
C2209      C2214   1.390       .  A
C2209      H2216   1.085       .  S
C2210      C2211   1.415       .  A
C2211      C2212   1.406       .  A
C2211      N2218   1.437       .  S
C2212      C2213   1.400       .  A
C2212      H2217   1.083       .  S
C2213      C2214   1.410       .  A
C2214      N2215   1.432       .  S
N2215      O2219   1.261       .  A
N2215      O2220   1.262       .  A
N2218      O2222   1.263       .  A
N2218      O2221   1.262       .  A
C2223      C2224   1.413       .  A
C2223      C2228   1.425       .  A
C2223      H2230   1.083       .  S
C2224      C2225   1.414       .  A
C2225      C2226   1.414       .  A
C2225      N2232   1.436       .  S
C2226      C2227   1.417       .  A
C2226      H2231   1.083       .  S
C2227      C2228   1.422       .  A
C2228      N2229   1.435       .  S
N2229      O2233   1.262       .  A
N2229      O2234   1.262       .  A
N2232      O2236   1.263       .  A
N2232      O2235   1.262       .  A
C2237      C2238   1.400       .  A
C2237      C2242   1.407       .  A
C2237      H2244   1.084       .  S
C2238      C2239   1.421       .  A
C2239      C2240   1.425       .  A
C2239      N2246   1.436       .  S
C2240      C2241   1.411       .  A
C2240      H2245   1.083       .  S
C2241      C2242   1.423       .  A
C2242      N2243   1.431       .  S
N2243      O2247   1.262       .  A
N2243      O2248   1.262       .  A
N2246      O2250   1.262       .  A
N2246      O2249   1.262       .  A
C2251      C2252   1.407       .  A
C2251      C2256   1.396       .  A
C2251      H2258   1.084       .  S
C2252      C2253   1.408       .  A
C2253      C2254   1.384       .  A
C2253      N2260   1.431       .  S
C2254      C2255   1.402       .  A
C2254      H2259   1.085       .  S
C2255      C2256   1.402       .  A
C2256      N2257   1.428       .  S
N2257      O2261   1.262       .  A
N2257      O2262   1.261       .  A
N2260      O2264   1.262       .  A
N2260      O2263   1.262       .  A
C2265      C2266   1.399       .  A
C2265      C2270   1.384       .  A
C2265      H2272   1.084       .  S
C2266      C2267   1.414       .  A
C2267      C2268   1.402       .  A
C2267      N2274   1.439       .  S
C2268      C2269   1.399       .  A
C2268      H2273   1.084       .  S
C2269      C2270   1.411       .  A
C2270      N2271   1.441       .  S
N2271      O2275   1.262       .  A
N2271      O2276   1.263       .  A
N2274      O2278   1.263       .  A
N2274      O2277   1.263       .  A
