geometry optimzed in LAMMPS
_audit_creation_date              2020-12-01 
_audit_creation_method            'lammps2cif' 
_symmetry_space_group_name_H-M    'P1' 
_symmetry_Int_Tables_number       1 
_symmetry_cell_setting            triclinic 
loop_ 
_symmetry_equiv_pos_as_xyz 
  x,y,z 
_cell_length_a                    38.31480554 
_cell_length_b                    38.42038161782973 
_cell_length_c                    38.213302561987895 
_cell_angle_alpha                 90.03488003844879 
_cell_angle_beta                  89.93454708176125 
_cell_angle_gamma                 90.02869343362585 
loop_ 
_atom_site_label 
_atom_site_type_symbol 
_atom_site_fract_x 
_atom_site_fract_y 
_atom_site_fract_z 
_atom_site_charge 
C1          C  0.33474078  0.21489721  0.52790149     0.79400
N2          N  0.34834022  0.18243613  0.52975398    -0.78900
C3          C  0.36110847  0.16726462  0.50045767     0.81900
N4          N  0.35870777  0.18397555  0.46935910    -0.78800
C5          C  0.34446985  0.21631508  0.46741309     0.82000
N6          N  0.33269486  0.23130046  0.49692304    -0.80500
C7          C  0.14575786  0.40581860  0.46370415     0.79400
N8          N  0.11493543  0.42428977  0.46280140    -0.78900
C9          C  0.09967133  0.43568205  0.49334154     0.81900
N10         N  0.11527263  0.42772998  0.52428104    -0.78800
C11         C  0.14517986  0.40866579  0.52591482     0.82000
N12         N  0.16025976  0.39798940  0.49537066    -0.80500
C13         C  0.14041522  0.52944333  0.37246221     0.79400
N14         N  0.15317951  0.56027329  0.36130949    -0.78900
C15         C  0.13427411  0.58982970  0.36435111     0.81900
N16         N  0.10143932  0.58840788  0.37780898    -0.78800
C17         C  0.08846115  0.55771538  0.38945605     0.82000
N18         N  0.10795569  0.52860495  0.38670942    -0.80500
C19         C  0.32803513  0.52765397  0.17980341     0.79400
N20         N  0.32022671  0.55926911  0.19403649    -0.78900
C21         C  0.32970803  0.58943882  0.17772173     0.81900
N22         N  0.34650740  0.58768131  0.14603428    -0.78800
C23         C  0.35494820  0.55627242  0.13128386     0.82000
N24         N  0.34505839  0.52653178  0.14826174    -0.80500
C25         C  0.48720135  0.21308846  0.35374918     0.79400
N26         N  0.45747928  0.23113867  0.34830327    -0.78900
C27         C  0.42608154  0.21800423  0.35774332     0.81900
N28         N  0.42418566  0.18537333  0.37244919    -0.78800
C29         C  0.45440429  0.16738992  0.37888753     0.82000
N30         N  0.48518849  0.18145029  0.36894655    -0.80500
C31         C  0.45918379  0.42633554  0.17751307     0.79400
N32         N  0.48958027  0.41612667  0.19230698    -0.78900
C33         C  0.52040809  0.42207429  0.17587984     0.81900
N34         N  0.52083972  0.43717537  0.14350764    -0.78800
C35         C  0.49027959  0.44794078  0.12901159     0.82000
N36         N  0.46015918  0.44201394  0.14606847    -0.80500
C37         C  0.12536603  0.38441034  0.96396560     0.79400
N38         N  0.13484374  0.36923974  0.99481684    -0.78900
C39         C  0.12602015  0.38391200  0.02615689     0.81900
N40         N  0.10735880  0.41427729  0.02640731    -0.78800
C41         C  0.09720610  0.42997383  0.99604171     0.82000
N42         N  0.10693934  0.41509579  0.96485841    -0.80500
C43         C  0.31272805  0.19106092  0.96797956     0.79400
N44         N  0.34266605  0.17266247  0.97087487    -0.78900
C45         C  0.35938237  0.17027107  0.00189190     0.81900
N46         N  0.34617080  0.18644584  0.03046236    -0.78800
C47         C  0.31555252  0.20387558  0.02787303     0.82000
N48         N  0.29935933  0.20648529  0.99673096    -0.80500
O49         O  0.11498168  0.34278403  0.75430236    -0.89000
C50         C  0.23984625  0.25420219  0.63110051     1.11100
O51         O  0.19161839  0.33659719  0.74395958    -1.36800
O52         O  0.16872593  0.22718283  0.67252853    -0.90500
O53         O  0.14215528  0.38207678  0.78674819    -0.91100
O54         O  0.17409804  0.29626696  0.81690535    -0.80000
O55         O  0.14311863  0.29013954  0.70708578    -1.02000
C56         C  0.23560922  0.21926310  0.78242886     1.21100
O57         O  0.24897078  0.30331149  0.76987448    -1.36900
Mn58       Mn  0.24188547  0.32756955  0.71930367     1.82100
O59         O  0.20630871  0.23331768  0.78837189    -0.79000
O60         O  0.20497033  0.20018740  0.70890337    -0.88400
C61         C  0.30369366  0.28390650  0.69565375     1.12200
C62         C  0.17752694  0.20070125  0.69024000     1.06900
O63         O  0.26996328  0.37532842  0.73161577    -0.80000
O64         O  0.21558875  0.27796308  0.71227249    -1.33700
O65         O  0.24718190  0.37596675  0.78263352    -0.99200
C66         C  0.27406329  0.26773368  0.84691363     1.05600
Mn67       Mn  0.24770390  0.23388884  0.70939331     1.48600
O68         O  0.25311854  0.29317973  0.84855664    -0.88400
Mn69       Mn  0.19494692  0.37811682  0.77987196     1.49600
O70         O  0.15123243  0.39408196  0.70760727    -0.92300
C71         C  0.12797801  0.27001784  0.72629973     1.18800
C72         C  0.17025360  0.41917914  0.71750159     1.10900
Mn73       Mn  0.19557629  0.28409362  0.76528721     1.81000
O74         O  0.28913456  0.26365979  0.71534495    -0.97400
Mn75       Mn  0.14803891  0.34037871  0.71117912     1.49300
C76         C  0.11668803  0.36199472  0.78117473     1.07400
Mn77       Mn  0.28953799  0.26656897  0.76642480     1.49900
C78         C  0.33164654  0.32627991  0.79342414     1.10300
O79         O  0.20216586  0.34317274  0.81680342    -1.03200
O80         O  0.24953358  0.23439624  0.65564428    -0.92900
C81         C  0.18080413  0.32502590  0.83175003     1.21600
O82         O  0.25304766  0.23286136  0.75979370    -1.03600
O83         O  0.21529137  0.27603169  0.63325551    -0.91000
O84         O  0.32908056  0.30374467  0.76927174    -0.90600
O85         O  0.19327629  0.41634432  0.74117520    -0.90600
Mn86       Mn  0.17803320  0.28063180  0.67195122     1.47900
O87         O  0.29033717  0.31391816  0.69331954    -0.79100
C88         C  0.26897976  0.38808877  0.76218388     1.14600
O89         O  0.14347380  0.26317684  0.75479696    -0.77800
O90         O  0.22996801  0.35237043  0.67030787    -0.77400
Mn91       Mn  0.25278554  0.33498173  0.81440700     1.51100
O92         O  0.29115610  0.26025746  0.81961661    -0.89800
O93         O  0.17856197  0.33176872  0.67097563    -0.97300
O94         O  0.30662371  0.33517671  0.81307178    -0.92300
C95         C  0.19990881  0.35070858  0.65676744     1.12400
C96         C  0.10047056  0.02785490  0.32803980     0.79400
N97         N  0.08754611  0.02862367  0.36097116    -0.78900
C98         C  0.08593044  0.05840785  0.37961770     0.81900
N99         N  0.09824196  0.08836949  0.36528718    -0.78800
C100        C  0.11039737  0.08813308  0.33170497     0.82000
N101        N  0.11171023  0.05792309  0.31363323    -0.80500
C102        C  0.29524999  0.02738943  0.14505650     0.79400
N103        N  0.32629269  0.02602673  0.12745676    -0.78900
C104        C  0.34286309  0.05569210  0.11707224     0.81900
N105        N  0.32804788  0.08709271  0.12503718    -0.78800
C106        C  0.29684506  0.08924565  0.14262826     0.82000
N107        N  0.28089489  0.05902861  0.15265226    -0.80500
O108        O  0.25185085  0.81797261  0.13725767    -0.89000
C109        C  0.17033187  0.69942951  0.27116226     1.11100
O110        O  0.25199525  0.81014801  0.21470793    -1.36800
O111        O  0.14437681  0.73197804  0.20468243    -0.90500
O112        O  0.29230047  0.85246162  0.16064146    -0.91100
O113        O  0.21057710  0.88185209  0.19789605    -0.80000
O114        O  0.20286922  0.76988328  0.17090818    -1.02000
C115        C  0.13485319  0.84937405  0.26174482     1.21100
O116        O  0.22163120  0.83670611  0.27273592    -1.36900
Mn117      Mn  0.24586034  0.78637378  0.26569534     1.82100
O118        O  0.14886395  0.85461575  0.23218709    -0.79000
O119        O  0.11793674  0.77711338  0.22865239    -0.88400
C120        C  0.20168671  0.76222622  0.32578273     1.12200
C121        C  0.11955302  0.75330286  0.20542974     1.06900
O122        O  0.29545521  0.79910336  0.29035262    -0.80000
O123        O  0.19503239  0.77907696  0.24194149    -1.33700
O124        O  0.29411609  0.84842862  0.26656590    -0.99200
C125        C  0.18549087  0.91185572  0.29680036     1.05600
Mn126      Mn  0.15052265  0.77775381  0.27306439     1.48600
O127        O  0.21156504  0.91342567  0.27634451    -0.88400
Mn128      Mn  0.29310643  0.84616094  0.21523682     1.49600
O129        O  0.30660412  0.77645407  0.16903959    -0.92300
C130        C  0.18210028  0.78910339  0.15661960     1.18800
C131        C  0.33033579  0.78091080  0.19148996     1.10900
Mn132      Mn  0.19987335  0.83115709  0.22064506     1.81000
O133        O  0.18247118  0.78342183  0.31227414    -0.97400
Mn134      Mn  0.25315002  0.77643054  0.17169781     1.49300
C135        C  0.27175789  0.84422514  0.13572469     1.07400
Mn136      Mn  0.18625207  0.83401499  0.31440128     1.49900
C137        C  0.25010468  0.85757021  0.35425982     1.10300
O138        O  0.25896110  0.88274352  0.22382324    -1.03200
O139        O  0.14877041  0.72395699  0.27534660    -0.92900
C140        C  0.23931379  0.89712265  0.20344452     1.21600
O141        O  0.14968753  0.82807479  0.27961504    -1.03600
O142        O  0.19640125  0.70157337  0.25078307    -0.91000
O143        O  0.22590593  0.83508988  0.35152402    -0.90600
O144        O  0.32960096  0.80592687  0.21309362    -0.90600
Mn145      Mn  0.19750881  0.73624538  0.20856148     1.47900
O146        O  0.23269312  0.76080687  0.31432378    -0.79100
C147        C  0.30929448  0.82882469  0.28638247     1.14600
O148        O  0.17718295  0.81865946  0.17052090    -0.77800
O149        O  0.27163411  0.73714998  0.25379041    -0.77400
Mn150      Mn  0.25465911  0.87990178  0.27481865     1.51100
O151        O  0.18175587  0.88718086  0.31833355    -0.89800
O152        O  0.24825329  0.73701285  0.20420220    -0.97300
O153        O  0.25845774  0.87807991  0.32943200    -0.92300
C154        C  0.26797947  0.72250054  0.22434558     1.12400
C155        C  0.96291331  0.20948228  0.33954398     0.79400
N156        N  0.96384519  0.19273411  0.37055826    -0.78900
C157        C  0.99368439  0.17956773  0.38370966     0.81900
N158        N  0.02400996  0.18381231  0.36533383    -0.78800
C159        C  0.02384924  0.20130462  0.33393219     0.82000
N160        N  0.99308272  0.21393313  0.32145041    -0.80500
C161        C  0.98807091  0.38714568  0.14682716     0.79400
N162        N  0.98903099  0.41645093  0.12705529    -0.78900
C163        C  0.95932904  0.43035499  0.11380221     0.81900
N164        N  0.92814338  0.41509704  0.12106068    -0.78800
C165        C  0.92698660  0.38579316  0.14110365     0.82000
N166        N  0.95693542  0.37214137  0.15391689    -0.80500
O167        O  0.80691183  0.26481576  0.31809795    -0.89000
C168        C  0.61396126  0.24778943  0.27951099     1.11100
O169        O  0.75118609  0.30515371  0.27898534    -1.36800
O170        O  0.68974941  0.19316079  0.24536175    -0.90500
O171        O  0.83135738  0.30508330  0.28421520    -0.91100
O172        O  0.79390725  0.29628303  0.20450301    -0.80000
O173        O  0.74499618  0.23273366  0.28528855    -1.02000
C174        C  0.70677697  0.26377262  0.16230796     1.21100
O175        O  0.72131879  0.33429991  0.22063371    -1.36900
Mn176      Mn  0.69883460  0.32547322  0.27190209     1.82100
O177        O  0.73569199  0.26026087  0.17731410    -0.79000
O178        O  0.65457446  0.21853775  0.20657506    -0.88400
C179        C  0.63445656  0.34328826  0.23206926     1.12200
C180        C  0.66906985  0.19188081  0.21935437     1.06900
O181        O  0.70717828  0.37457087  0.29648976    -0.80000
O182        O  0.69369804  0.27396039  0.24870643    -1.33700
O183        O  0.75645753  0.37751623  0.27249095    -0.99200
C184        C  0.75149070  0.36275580  0.14070533     1.05600
Mn185      Mn  0.65226304  0.27172455  0.21297083     1.48600
O186        O  0.76165884  0.37864724  0.16783788    -0.88400
Mn187      Mn  0.79157231  0.34208923  0.28066210     1.49600
O188        O  0.75585675  0.30677243  0.35915285    -0.92300
C189        C  0.76577487  0.21978507  0.26526191     1.18800
C190        C  0.77385381  0.33444922  0.36101244     1.10900
Mn191      Mn  0.74511730  0.28344931  0.22701938     1.81000
O192        O  0.64854681  0.32355085  0.21100769    -0.97400
Mn193      Mn  0.75299624  0.26900181  0.31985265     1.49300
C194        C  0.83328407  0.27761510  0.30255186     1.07400
Mn195      Mn  0.68716547  0.33465902  0.17784127     1.49900
C196        C  0.68836910  0.41446826  0.19820588     1.10300
O197        O  0.79309017  0.34515484  0.22973492    -1.03200
O198        O  0.61449784  0.26622806  0.25200192    -0.92900
C199        C  0.80702005  0.32591689  0.20870817     1.21600
O200        O  0.68575911  0.28326490  0.17573999    -1.03600
O201        O  0.64080362  0.23210043  0.29075889    -0.91000
O202        O  0.67903647  0.38804000  0.18051819    -0.90600
O203        O  0.78963349  0.34702975  0.33465364    -0.90600
Mn204      Mn  0.69426451  0.23199089  0.28387462     1.47900
O205        O  0.64883722  0.34732197  0.26133389    -0.79100
C206        C  0.73575767  0.39011719  0.29295992     1.14600
O207        O  0.77010314  0.23490921  0.23653497    -0.77800
O208        O  0.67593284  0.31342944  0.32095417    -0.77400
Mn209      Mn  0.75502284  0.37751860  0.22163650     1.51100
O210        O  0.72661789  0.34103500  0.14104471    -0.89800
O211        O  0.70244667  0.26563603  0.32078959    -0.97300
O212        O  0.71465397  0.41386891  0.21837060    -0.92300
C213        C  0.68118035  0.28436625  0.33485734     1.12400
C214        C  0.64722877  0.18654326  0.98777136     0.79400
N215        N  0.61650820  0.16936678  0.98827606    -0.78900
C216        C  0.60156625  0.15906298  0.01863091     0.81900
N217        N  0.61721272  0.16714223  0.04966963    -0.78800
C218        C  0.64862865  0.18404676  0.04935616     0.82000
N219        N  0.66301042  0.19384791  0.01846700    -0.80500
C220        C  0.82286645  0.39380936  0.01091819     0.79400
N221        N  0.84082391  0.42413977  0.01013507    -0.78900
C222        C  0.85389356  0.43726673  0.98009080     0.81900
N223        N  0.84917911  0.41919140  0.94961464    -0.78800
C224        C  0.83161647  0.38796446  0.94996512     0.82000
N225        N  0.81840358  0.37590798  0.98070124    -0.80500
C226        C  0.93665627  0.20070960  0.67068917     0.79400
N227        N  0.93929287  0.18247670  0.63990487    -0.78900
C228        C  0.97092500  0.17565025  0.62462065     0.81900
N229        N  0.00055740  0.18761809  0.64059325    -0.78800
C230        C  0.99881168  0.20579059  0.67139058     0.82000
N231        N  0.96683816  0.21227910  0.68599809    -0.80500
C232        C  0.00123573  0.38631556  0.87065478     0.79400
N233        N  0.00066484  0.41848218  0.88485575    -0.78900
C234        C  0.97059743  0.43612434  0.88905482     0.81900
N235        N  0.94014229  0.42162412  0.87832465    -0.78800
C236        C  0.94019127  0.38878258  0.86492425     0.82000
N237        N  0.97070697  0.37162667  0.86083216    -0.80500
O238        O  0.80464736  0.36658846  0.78416505    -0.89000
C239        C  0.61518312  0.33414394  0.81156109     1.11100
O240        O  0.74775221  0.32382848  0.75024904    -1.36800
O241        O  0.69379423  0.29178227  0.86024043    -0.90500
O242        O  0.82740468  0.32225782  0.75415528    -0.91100
O243        O  0.78848106  0.24680955  0.76080341    -0.80000
O244        O  0.74453310  0.33454433  0.82043310    -1.02000
C245        C  0.69636606  0.20966040  0.79307699     1.21100
O246        O  0.71486537  0.26731633  0.72276192    -1.36900
Mn247      Mn  0.69503896  0.31992669  0.72963046     1.82100
O248        O  0.72631403  0.22315967  0.79716405    -0.79000
O249        O  0.64989657  0.25970905  0.83933259    -0.88400
C250        C  0.62696477  0.28289566  0.71389746     1.12200
C251        C  0.67174551  0.26722586  0.86326663     1.06900
O252        O  0.70732162  0.34348699  0.67938339    -0.80000
O253        O  0.68973534  0.29801653  0.78186311    -1.33700
O254        O  0.75470878  0.31570227  0.67929120    -0.99200
C255        C  0.73813800  0.18650419  0.69609617     1.05600
Mn256      Mn  0.64590258  0.26565878  0.78509219     1.48600
O257        O  0.75048046  0.21198866  0.67926803    -0.88400
Mn258      Mn  0.78977866  0.32111099  0.71501281     1.49600
O259        O  0.75228166  0.40246566  0.74121165    -0.92300
C260        C  0.76570830  0.31554334  0.83403045     1.18800
C261        C  0.77469607  0.40121617  0.71670017     1.10900
Mn262      Mn  0.73972514  0.27288175  0.77362359     1.81000
O263        O  0.64154367  0.26332487  0.73411838    -0.97400
Mn264      Mn  0.75058939  0.36751028  0.78290440     1.49300
C265        C  0.82962688  0.34648299  0.77653792     1.07400
Mn266      Mn  0.67616668  0.22811676  0.72303166     1.49900
C267        C  0.67984646  0.24875391  0.64303624     1.10300
O268        O  0.78900398  0.27044058  0.71114512    -1.03200
O269        O  0.61249059  0.30889977  0.79011908    -0.92900
C270        C  0.80287174  0.25007819  0.73116391     1.21600
O271        O  0.67625871  0.22569014  0.77437665    -1.03600
O272        O  0.64177354  0.33852265  0.83026832    -0.91000
O273        O  0.66814049  0.23143647  0.66894792    -0.90600
O274        O  0.79264499  0.37435866  0.71013282    -0.90600
Mn275      Mn  0.69427986  0.33255715  0.82419689     1.47900
O276        O  0.64303572  0.31103459  0.70769933    -0.79100
C277        C  0.73712935  0.33836828  0.66592927     1.14600
O278        O  0.76672953  0.28464372  0.82246508    -0.77800
O279        O  0.67340323  0.37064019  0.74227878    -0.77400
Mn280      Mn  0.74897216  0.26540918  0.67969637     1.51100
O281        O  0.71228198  0.18827182  0.71670840    -0.89800
O282        O  0.69979755  0.37089982  0.79060767    -0.97300
O283        O  0.70812811  0.26575922  0.64436355    -0.92300
C284        C  0.67836385  0.38499402  0.77170106     1.12400
C285        C  0.11168485  0.72037356  0.98094578     0.79400
N286        N  0.09669391  0.68845452  0.98247670    -0.78900
C287        C  0.08745211  0.67364846  0.01321327     0.81900
N288        N  0.09395439  0.69125883  0.04371924    -0.78800
C289        C  0.10782554  0.72424382  0.04228710     0.82000
N290        N  0.11679834  0.73799554  0.01099175    -0.80500
C291        C  0.29607140  0.92178900  0.00986566     0.79400
N292        N  0.28092799  0.91326222  0.97897014    -0.78900
C293        C  0.29616048  0.92219729  0.94810658     0.81900
N294        N  0.32724717  0.93969258  0.94826369    -0.78800
C295        C  0.34239269  0.94816461  0.97929417     0.82000
N296        N  0.32679038  0.93879524  0.00943019    -0.80500
C297        C  0.10188729  0.00980101  0.67634694     0.79400
N298        N  0.11065342  0.04115309  0.69041674    -0.78900
C299        C  0.10200519  0.07127406  0.67411731     0.81900
N300        N  0.08464630  0.06941244  0.64336650    -0.78800
C301        C  0.07632068  0.03876164  0.62828695     0.82000
N302        N  0.08563715  0.00859451  0.64447820    -0.80500
C303        C  0.31269642  0.04495653  0.84653897     0.79400
N304        N  0.29599550  0.07541852  0.84068491    -0.78900
C305        C  0.30930078  0.10602674  0.85239509     0.81900
N306        N  0.34077676  0.10617265  0.86977470    -0.78800
C307        C  0.35757884  0.07533979  0.87635201     0.82000
N308        N  0.34319301  0.04535487  0.86452609    -0.80500
O309        O  0.33011863  0.83953545  0.74518551    -0.89000
C310        C  0.18799500  0.74866762  0.85371144     1.11100
O311        O  0.25032929  0.83476432  0.74662907    -1.36800
O312        O  0.26019534  0.72073133  0.81834916    -0.90500
O313        O  0.30603205  0.87456157  0.70571058    -0.91100
O314        O  0.26826849  0.79424978  0.67547749    -0.80000
O315        O  0.29265490  0.78388048  0.78544667    -1.02000
C316        C  0.20542422  0.72078491  0.70109747     1.21100
O317        O  0.19272714  0.80536498  0.71546097    -1.36900
Mn318      Mn  0.19814829  0.82672177  0.76769007     1.82100
O319        O  0.23511731  0.73434546  0.69904758    -0.79000
O320        O  0.22789185  0.69525019  0.77710399    -0.88400
C321        C  0.13478557  0.78548415  0.78598543     1.12200
C322        C  0.25126402  0.69419026  0.80069496     1.06900
O323        O  0.17458574  0.87597625  0.75698241    -0.80000
O324        O  0.22086094  0.77524846  0.77482366    -1.33700
O325        O  0.20104021  0.87834120  0.70873318    -0.99200
C326        C  0.16676594  0.77874935  0.63256650     1.05600
Mn327      Mn  0.18771472  0.73207687  0.77326767     1.48600
O328        O  0.18761361  0.80447229  0.63416553    -0.88400
Mn329      Mn  0.25198100  0.87666132  0.71127415     1.49600
O330        O  0.29086563  0.88901475  0.78898726    -0.92300
C331        C  0.30726329  0.76349356  0.76555212     1.18800
C332        C  0.27664843  0.91596405  0.77670118     1.10900
Mn333      Mn  0.24445792  0.78316986  0.72393552     1.81000
O334        O  0.14862488  0.76549819  0.76495516    -0.97400
Mn335      Mn  0.29122462  0.83573120  0.78289312     1.49300
C336        C  0.33214305  0.85815339  0.71792234     1.07400
Mn337      Mn  0.15111613  0.77015562  0.71292374     1.49900
C338        C  0.11176580  0.83623486  0.69197364     1.10300
O339        O  0.24325062  0.84313929  0.67393235    -1.03200
O340        O  0.18046493  0.73126984  0.82668709    -0.92900
C341        C  0.26386530  0.82298397  0.66065790     1.21600
O342        O  0.18541021  0.73356654  0.72196317    -1.03600
O343        O  0.21286589  0.77054993  0.85426714    -0.91000
O344        O  0.11299213  0.80861565  0.71004920    -0.90600
O345        O  0.25662139  0.91522665  0.75022372    -0.90600
Mn346      Mn  0.25362581  0.77460794  0.81851295     1.47900
O347        O  0.14863091  0.81487006  0.79030301    -0.79100
C348        C  0.18018925  0.89162330  0.72861148     1.14600
O349        O  0.29389081  0.75952720  0.73575548    -0.77800
O350        O  0.20724105  0.84998779  0.81755716    -0.77400
Mn351      Mn  0.19230826  0.84183975  0.67432354     1.51100
O352        O  0.15203150  0.76613623  0.65921757    -0.89800
O353        O  0.25627511  0.82577645  0.81869303    -0.97300
O354        O  0.13833524  0.84818137  0.67596626    -0.92300
C355        C  0.23652407  0.84664100  0.83181649     1.12400
C356        C  0.94078277  0.71902309  0.13235230     0.79400
N357        N  0.93992161  0.68679373  0.11797176    -0.78900
C358        C  0.96943833  0.67267050  0.10468952     0.81900
N359        N  0.99988857  0.69042297  0.10681850    -0.78800
C360        C  0.00100059  0.72261584  0.12161185     0.82000
N361        N  0.97126156  0.73637833  0.13438007    -0.80500
C362        C  0.94412972  0.91524865  0.31676308     0.79400
N363        N  0.97514211  0.90648389  0.30158520    -0.78900
C364        C  0.00608900  0.91436193  0.31739110     0.81900
N365        N  0.00562246  0.93061048  0.34941656    -0.78800
C366        C  0.97486380  0.94031516  0.36486597     0.82000
N367        N  0.94434797  0.93189822  0.34846759    -0.80500
C368        C  0.83227421  0.03934810  0.32552253     0.79400
N369        N  0.82473293  0.06965806  0.30914504    -0.78900
C370        C  0.83630589  0.10043637  0.32210871     0.81900
N371        N  0.85486333  0.10120336  0.35252198    -0.78800
C372        C  0.86293502  0.07084325  0.36879957     0.82000
N373        N  0.85121678  0.04040860  0.35533427    -0.80500
C374        C  0.63486688  0.00250408  0.14099308     0.79400
N375        N  0.64751157  0.03231882  0.15518957    -0.78900
C376        C  0.62991105  0.06265410  0.15217997     0.81900
N377        N  0.59909301  0.06287998  0.13473873    -0.78800
C378        C  0.58559160  0.03350919  0.12054942     0.82000
N379        N  0.60349993  0.00300790  0.12377745    -0.80500
O380        O  0.64888182  0.76312992  0.17314987    -0.89000
C381        C  0.83702968  0.75211947  0.23029360     1.11100
O382        O  0.69822286  0.80252174  0.22114017    -1.36800
O383        O  0.75863734  0.69803563  0.26114401    -0.90500
O384        O  0.62028197  0.78972924  0.21584666    -0.91100
O385        O  0.65003918  0.79277180  0.29583649    -0.80000
O386        O  0.70754424  0.73202834  0.21380045    -1.02000
C387        C  0.73957297  0.76450784  0.34258365     1.21100
O388        O  0.72363740  0.83330842  0.28023843    -1.36900
Mn389      Mn  0.74903934  0.82648934  0.23002372     1.82100
O390        O  0.71163312  0.75866747  0.32575064    -0.79000
O391        O  0.79352177  0.72297969  0.30029316    -0.88400
C392        C  0.81216251  0.84763809  0.27364803     1.12200
C393        C  0.77563952  0.69721641  0.28945865     1.06900
O394        O  0.73687455  0.87485778  0.20341788    -0.80000
O395        O  0.75550196  0.77594948  0.25483555    -1.33700
O396        O  0.68557753  0.87318171  0.22507344    -0.99200
C397        C  0.68537412  0.85689805  0.35473123     1.05600
Mn398      Mn  0.79529596  0.77679846  0.29319893     1.48600
O399        O  0.68131676  0.87840154  0.33016305    -0.88400
Mn400      Mn  0.65331854  0.83306904  0.21770864     1.49600
O401        O  0.70138684  0.80949029  0.14128416    -0.92300
C402        C  0.68529649  0.71751424  0.23185048     1.18800
C403        C  0.67625976  0.83085894  0.13883476     1.10900
Mn404      Mn  0.70207815  0.78130411  0.27416803     1.81000
O405        O  0.79724375  0.82820288  0.29433371    -0.97400
Mn406      Mn  0.70202983  0.76926266  0.17797803     1.49300
C407        C  0.62257212  0.76592008  0.19280315     1.07400
Mn408      Mn  0.75598658  0.83597165  0.32445240     1.49900
C409        C  0.75226280  0.91436963  0.30067826     1.10300
O410        O  0.65075750  0.84002707  0.26884821    -1.03200
O411        O  0.83474155  0.77288187  0.25594784    -0.92900
C412        C  0.63523360  0.82161047  0.28943696     1.21600
O413        O  0.75977272  0.78511638  0.32883458    -1.03600
O414        O  0.81226538  0.73371245  0.21895115    -0.91000
O415        O  0.76006438  0.89017399  0.32203438    -0.90600
O416        O  0.65437254  0.83588958  0.16322673    -0.90600
Mn417      Mn  0.75908793  0.73349679  0.22061950     1.47900
O418        O  0.79800212  0.85103805  0.24386208    -0.79100
C419        C  0.70594613  0.88642529  0.20392941     1.14600
O420        O  0.67923106  0.73099871  0.26148919    -0.77800
O421        O  0.77625658  0.81493835  0.18117306    -0.77400
Mn422      Mn  0.68794425  0.87464060  0.27724289     1.51100
O423        O  0.71198725  0.83745828  0.35659782    -0.89800
O424        O  0.75299280  0.76566128  0.18122192    -0.97300
O425        O  0.72750844  0.91158272  0.27886482    -0.92300
C426        C  0.77379673  0.78512725  0.16739718     1.12400
C427        C  0.63668114  0.92436199  0.03104583     0.79400
N428        N  0.65351529  0.91904587  0.00041529    -0.78900
C429        C  0.63848676  0.92774850  0.96971767     0.81900
N430        N  0.60643275  0.94239623  0.96974895    -0.78800
C431        C  0.58909914  0.94768263  0.00004041     0.82000
N432        N  0.60380066  0.93779240  0.03078823    -0.80500
C433        C  0.82406443  0.72799675  0.97308811     0.79400
N434        N  0.81742842  0.74221287  0.00521130    -0.78900
C435        C  0.82825358  0.72624878  0.03526810     0.81900
N436        N  0.84606707  0.69539469  0.03253774    -0.78800
C437        C  0.85311736  0.68058802  0.00068825     0.82000
N438        N  0.84172209  0.69706569  0.97109206    -0.80500
C439        C  0.82955771  0.07827971  0.65815938     0.79400
N440        N  0.84576936  0.08128844  0.62677171    -0.78900
C441        C  0.85994554  0.05286698  0.61139928     0.81900
N442        N  0.85679210  0.02128635  0.62694581    -0.78800
C443        C  0.84042638  0.01820886  0.65838209     0.82000
N444        N  0.82658534  0.04681468  0.67346378    -0.80500
C445        C  0.64916069  0.07714072  0.85501601     0.79400
N446        N  0.61824688  0.07836830  0.87279031    -0.78900
C447        C  0.60144884  0.04881425  0.88292628     0.81900
N448        N  0.61582753  0.01724588  0.87414408    -0.78800
C449        C  0.64685888  0.01520642  0.85603348     0.82000
N450        N  0.66320139  0.04550845  0.84672820    -0.80500
C451        C  0.98230294  0.90314693  0.65377311     0.79400
N452        N  0.95165668  0.89660200  0.67026322    -0.78900
C453        C  0.92073400  0.90632868  0.65586989     0.81900
N454        N  0.92062853  0.92305601  0.62394188    -0.78800
C455        C  0.95172692  0.92997321  0.60742597     0.82000
N456        N  0.98171391  0.91946953  0.62254189    -0.80500
C457        C  0.95915163  0.72916648  0.86533568     0.79400
N458        N  0.98986521  0.74403168  0.85639675    -0.78900
C459        C  0.02057734  0.72866845  0.86492251     0.81900
N460        N  0.02069137  0.69717400  0.88150686    -0.78800
C461        C  0.98979493  0.68251416  0.89117623     0.82000
N462        N  0.95968536  0.69861596  0.88290176    -0.80500
N463        N  0.95509577  0.98452487  0.44553731    -0.06900
N464        N  0.94443412  0.97050029  0.41560541    -0.59000
N465        N  0.97974686  0.97500544  0.53115652    -0.06600
N466        N  0.98700413  0.95679363  0.55955023    -0.61200
N467        N  0.94576643  0.97807983  0.52778733    -0.06200
N468        N  0.92923203  0.96213845  0.55385400    -0.59000
N469        N  0.98917213  0.98153399  0.44855955    -0.05900
N470        N  0.00225660  0.96546145  0.42056365    -0.61500
C471        C  0.97403014  0.95853707  0.40002607     0.95300
C472        C  0.95535823  0.94871560  0.57347224     0.95000
N473        N  0.04335060  0.06265347  0.54565339    -0.07100
N474        N  0.05605946  0.07119986  0.57647155    -0.59600
N475        N  0.04926549  0.03625741  0.46114101    -0.05200
N476        N  0.06225355  0.02648504  0.43069774    -0.60900
N477        N  0.05214602  0.07028919  0.46470977    -0.07100
N478        N  0.06715702  0.08409504  0.43675541    -0.59900
N479        N  0.04098204  0.02850149  0.54278973    -0.04900
N480        N  0.05221899  0.01330863  0.57192171    -0.61000
Mn481      Mn  0.01602928  0.00420907  0.49596961     1.18400
C482        C  0.06150555  0.04043184  0.59265771     0.97300
C483        C  0.07341512  0.05645133  0.41589177     0.98000
N484        N  0.89663463  0.04152938  0.52799672    -0.07200
N485        N  0.88168194  0.02779315  0.55585066    -0.63500
N486        N  0.90596038  0.08237950  0.45010174    -0.06000
N487        N  0.89202224  0.09710434  0.42197606    -0.64100
N488        N  0.90382227  0.04823943  0.44762914    -0.06700
N489        N  0.88857999  0.03909355  0.41823096    -0.63700
N490        N  0.89891692  0.07562136  0.53134297    -0.05600
N491        N  0.88530983  0.08562717  0.56147283    -0.64400
Mn492      Mn  0.92430172  0.01246277  0.48691781     1.10700
C493        C  0.87471411  0.05552828  0.57631135     0.98600
C494        C  0.88140367  0.06957088  0.40241899     0.98600
N495        N  0.00168035  0.13284216  0.46391284    -0.06700
N496        N  0.01761995  0.14816523  0.43710086    -0.62000
N497        N  0.95852117  0.13064339  0.54288891    -0.06000
N498        N  0.94507553  0.14787749  0.56991685    -0.58800
N499        N  0.99257088  0.12787750  0.54637721    -0.07300
N500        N  0.00286810  0.14344681  0.57572172    -0.61600
N501        N  0.96760889  0.13562089  0.46082996    -0.06300
N502        N  0.95970018  0.15302994  0.43218123    -0.58800
Mn503      Mn  0.02371734  0.09913384  0.50559212     1.20200
Mn504      Mn  0.93166480  0.10716103  0.49619664     1.10100
Cl505      Cl  0.97399715  0.05578070  0.49619908    -0.86800
C506        C  0.99097230  0.16084855  0.41758130     0.95600
C507        C  0.97296835  0.15588549  0.59040809     0.95400
N508        N  0.94811235  0.50883074  0.06663211    -0.06900
N509        N  0.93372808  0.48139469  0.08189146    -0.59000
N510        N  0.98601923  0.58807516  0.07387586    -0.06600
N511        N  0.99821805  0.61755432  0.08678323    -0.61200
N512        N  0.95169135  0.58943034  0.07181254    -0.06200
N513        N  0.94001798  0.61953892  0.08349143    -0.59000
N514        N  0.98241435  0.50715517  0.06898110    -0.05900
N515        N  0.99193075  0.47873840  0.08580677    -0.61500
C516        C  0.96142562  0.46289415  0.09363234     0.95300
C517        C  0.96924207  0.63669058  0.09266728     0.95000
N518        N  0.05183273  0.59169513  0.98942576    -0.07100
N519        N  0.06648525  0.62155359  0.98059714    -0.59600
N520        N  0.04696872  0.50674307  0.01651286    -0.05200
N521        N  0.06358762  0.47827055  0.02721760    -0.60900
N522        N  0.04919010  0.50938352  0.98225497    -0.07100
N523        N  0.06723068  0.48283635  0.96909448    -0.59900
N524        N  0.04910913  0.58955373  0.02364638    -0.04900
N525        N  0.06186964  0.61804672  0.03873738    -0.61000
Mn526      Mn  0.01700031  0.54748313  0.04700327     1.18400
C527        C  0.07285811  0.63776575  0.01146351     0.97300
C528        C  0.07624554  0.46338633  0.99737727     0.98000
N529        N  0.89681510  0.59859634  0.01277844    -0.07200
N530        N  0.87997997  0.62569976  0.02632918    -0.63500
N531        N  0.89631744  0.51945695  0.97079488    -0.06000
N532        N  0.88235224  0.49175935  0.95529867    -0.64100
N533        N  0.89415987  0.51646151  0.00499782    -0.06700
N534        N  0.87853417  0.48703380  0.01345569    -0.63700
N535        N  0.89956582  0.60206757  0.97864767    -0.05600
N536        N  0.88435505  0.63146301  0.96837086    -0.64400
Mn537      Mn  0.92164246  0.55306437  0.04006423     1.10700
C538        C  0.87214188  0.64617953  0.99841284     0.98600
C539        C  0.87122352  0.47178167  0.98235217     0.98600
N540        N  0.99256099  0.51807352  0.92319953    -0.06700
N541        N  0.00257766  0.48737589  0.91149575    -0.62000
N542        N  0.96455399  0.60184487  0.92684478    -0.06000
N543        N  0.95604843  0.63214842  0.91316466    -0.58800
N544        N  0.99877832  0.59897459  0.92880450    -0.07300
N545        N  0.01413146  0.62733205  0.91646473    -0.61600
N546        N  0.95840592  0.52122900  0.92030169    -0.06300
N547        N  0.94471476  0.49277170  0.90659656    -0.58800
Mn548      Mn  0.02411787  0.55437460  0.95477515     1.20200
Mn549      Mn  0.92885404  0.56170483  0.94783856     1.10100
Cl550      Cl  0.97289473  0.55398484  0.99742818    -0.86800
C551        C  0.97253131  0.47205660  0.90122312     0.95600
C552        C  0.98710573  0.64773161  0.90684774     0.95400
N553        N  0.44066980  0.13128024  0.98712112    -0.06900
N554        N  0.41304330  0.14731010  0.97441958    -0.59000
N555        N  0.51815274  0.12025565  0.02760393    -0.06600
N556        N  0.54653407  0.13250652  0.04318618    -0.61200
N557        N  0.52107577  0.12292643  0.99332393    -0.06200
N558        N  0.55129252  0.13699213  0.98500731    -0.59000
N559        N  0.43798137  0.12848798  0.02140331    -0.05900
N560        N  0.40881465  0.14282662  0.03266360    -0.61500
C561        C  0.39368666  0.15436414  0.00310773     0.95300
C562        C  0.56691912  0.14279699  0.01615571     0.95000
N563        N  0.50419600  0.02524530  0.07623766    -0.07100
N564        N  0.53162771  0.00950234  0.09044311    -0.59600
N565        N  0.42544510  0.06812227  0.07454098    -0.05200
N566        N  0.39816850  0.08151613  0.09127233    -0.60900
N567        N  0.42174639  0.03425353  0.07109255    -0.07100
N568        N  0.39195133  0.02397377  0.08563446    -0.59900
N569        N  0.50706137  0.05914663  0.07968860    -0.04900
N570        N  0.53605575  0.06719726  0.09638362    -0.61000
Mn571      Mn  0.47216199  0.09497279  0.05185399     1.18400
C572        C  0.55119509  0.03615518  0.10307256     0.97300
C573        C  0.37732402  0.05373892  0.09820635     0.98000
N574        N  0.52189887  0.07237536  0.92748319    -0.07200
N575        N  0.55232091  0.08181618  0.91356045    -0.63500
N576        N  0.43567316  0.04863887  0.91884295    -0.06000
N577        N  0.40671682  0.04108457  0.90170076    -0.64100
N578        N  0.43883953  0.08254491  0.92229830    -0.06700
N579        N  0.41181545  0.09869619  0.90759465    -0.63700
N580        N  0.51774319  0.03856410  0.92416556    -0.05600
N581        N  0.54510501  0.02441012  0.90818640    -0.64400
Mn582      Mn  0.48102453  0.10360256  0.95662703     1.10700
C583        C  0.56671117  0.05159076  0.90151961     0.98600
C584        C  0.39197239  0.07237613  0.89460471     0.98600
N585        N  0.42254611  0.98411089  0.00527320    -0.06700
N586        N  0.39233990  0.96994319  0.01337798    -0.62000
N587        N  0.50619682  0.97953919  0.97823829    -0.06000
N588        N  0.53722040  0.96863648  0.96813992    -0.58800
N589        N  0.50300815  0.97640801  0.01245746    -0.07300
N590        N  0.53180973  0.96334122  0.02609954    -0.61600
N591        N  0.42551857  0.98702174  0.97103696    -0.06300
N592        N  0.39730243  0.97478919  0.95522381    -0.58800
Mn593      Mn  0.46237809  0.00364202  0.04209482     1.20200
Mn594      Mn  0.47113625  0.01240576  0.94699539     1.10100
Cl595      Cl  0.47154779  0.05371205  0.99936618    -0.86800
C596        C  0.37690876  0.96430212  0.98209771     0.95600
C597        C  0.55275996  0.95869276  0.99817763     0.95400
O598        O  0.75488404  0.68762403  0.75837074    -0.89000
C599        C  0.66625985  0.83285177  0.86043205     1.11100
O600        O  0.75068085  0.76682220  0.75636373    -1.36800
O601        O  0.63582587  0.75933615  0.82301308    -0.90500
O602        O  0.79241435  0.71036749  0.71970123    -0.91100
O603        O  0.71093472  0.74640757  0.68310371    -0.80000
O604        O  0.69937224  0.72601107  0.79519402    -1.02000
C605        C  0.63854114  0.81614653  0.70767144     1.21100
O606        O  0.72356088  0.82374976  0.72360459    -1.36900
Mn607      Mn  0.74507316  0.81977426  0.77594037     1.82100
O608        O  0.65053909  0.78542594  0.70656507    -0.79000
O609        O  0.61343013  0.79581014  0.78369849    -0.88400
C610        C  0.70492121  0.88583748  0.79341403     1.12200
C611        C  0.61089298  0.76954671  0.80363176     1.06900
O612        O  0.79541482  0.84251898  0.76238065    -0.80000
O613        O  0.69265250  0.79853152  0.78297174    -1.33700
O614        O  0.79448976  0.81399073  0.71539849    -0.99200
C615        C  0.69657065  0.84681227  0.64214141     1.05600
Mn616      Mn  0.65124913  0.83461626  0.78108482     1.48600
O617        O  0.71843016  0.82204055  0.64366595    -0.88400
Mn618      Mn  0.79324142  0.76371769  0.72173480     1.49600
O619        O  0.80335532  0.72963649  0.80207970    -0.92300
C620        C  0.68022896  0.70996586  0.77565504     1.18800
C621        C  0.82991144  0.74572900  0.79093288     1.10900
Mn622      Mn  0.69948525  0.77312048  0.73235142     1.81000
O623        O  0.68565913  0.87169290  0.77246956    -0.97400
Mn624      Mn  0.75009925  0.72750647  0.79486835     1.49300
C625        C  0.77506123  0.68532088  0.73220141     1.07400
Mn626      Mn  0.69240724  0.86845244  0.72125347     1.49900
C627        C  0.75817180  0.90033236  0.69408339     1.10300
O628        O  0.76047545  0.76940735  0.68296188    -1.03200
O629        O  0.64930719  0.84234530  0.83389747    -0.92900
C630        C  0.74067530  0.74901468  0.66890527     1.21600
O631        O  0.65190197  0.83644629  0.72886932    -1.03600
O632        O  0.68552337  0.80611924  0.86162111    -0.91000
O633        O  0.73486482  0.90237464  0.71775549    -0.90600
O634        O  0.82981221  0.76280601  0.76237190    -0.90600
Mn635      Mn  0.68981277  0.76505665  0.82643100     1.47900
O636        O  0.73423779  0.87125653  0.79775631    -0.79100
C637        C  0.80837782  0.83677735  0.73238618     1.14600
O638        O  0.67539571  0.72358940  0.74586722    -0.77800
O639        O  0.76737026  0.81064903  0.82717948    -0.77400
Mn640      Mn  0.75810609  0.81991510  0.68099095     1.51100
O641        O  0.68979816  0.86654404  0.66772137    -0.89800
O642        O  0.74064719  0.76271359  0.83042155    -0.97300
O643        O  0.76449267  0.87278557  0.67731094    -0.92300
C644        C  0.76094460  0.78306522  0.84409351     1.12400
C645        C  0.33600164  0.87732521  0.54072050     0.79400
N646        N  0.32325143  0.86547379  0.50988632    -0.78900
C647        C  0.32962879  0.88291415  0.47982273     0.81900
N648        N  0.34850061  0.91261873  0.48105251    -0.78800
C649        C  0.36144695  0.92487411  0.51156862     0.82000
N650        N  0.35454162  0.90758774  0.54171292    -0.80500
C651        C  0.12881908  0.70757896  0.50457350     0.79400
N652        N  0.14571827  0.71136535  0.47369023    -0.78900
C653        C  0.13263840  0.69754716  0.44371324     0.81900
N654        N  0.10152047  0.67989907  0.44474159    -0.78800
C655        C  0.08432880  0.67582387  0.47580719     0.82000
N656        N  0.09825310  0.68971400  0.50525766    -0.80500
C657        C  0.81220729  0.40264381  0.49014885     0.79400
N658        N  0.79575898  0.39715750  0.52103975    -0.78900
C659        C  0.81026121  0.40776820  0.55167184     0.81900
N660        N  0.84222858  0.42424338  0.55122640    -0.78800
C661        C  0.85874563  0.43003596  0.51988399     0.82000
N662        N  0.84355088  0.41869802  0.49014742    -0.80500
C663        C  0.60714237  0.22382302  0.51400713     0.79400
N664        N  0.58965824  0.19335103  0.51294308    -0.78900
C665        C  0.58139427  0.17790722  0.48232481     0.81900
N666        N  0.59165902  0.19276455  0.45181214    -0.78800
C667        C  0.60898137  0.22374885  0.45243701     0.82000
N668        N  0.61688439  0.23892645  0.48347989    -0.80500
C669        C  0.59848048  0.88422334  0.46961895     0.79400
N670        N  0.61144546  0.87169099  0.49997740    -0.78900
C671        C  0.60931440  0.89036398  0.52986208     0.81900
N672        N  0.59371995  0.92200880  0.52951403    -0.78800
C673        C  0.58081607  0.93481963  0.49928514     0.82000
N674        N  0.58346418  0.91602828  0.46963816    -0.80500
C675        C  0.79417792  0.69374977  0.53426988     0.79400
N676        N  0.82566790  0.67707763  0.53119728    -0.78900
C677        C  0.83972044  0.66931281  0.49919844     0.81900
N678        N  0.82177242  0.67906199  0.46977978    -0.78800
C679        C  0.78992611  0.69531727  0.47203559     0.82000
N680        N  0.77666895  0.70281968  0.50444590    -0.80500
C681        C  0.44081320  0.41542138  0.83632958     0.79400
N682        N  0.43996143  0.43004937  0.86875914    -0.78900
C683        C  0.46965043  0.44347388  0.88258494     0.81900
N684        N  0.49986099  0.44124912  0.86441571    -0.78800
C685        C  0.50120389  0.42551815  0.83264562     0.82000
N686        N  0.47145532  0.41244583  0.81908934    -0.80500
C687        C  0.49857322  0.22477460  0.64979550     0.79400
N688        N  0.50009549  0.19418041  0.63134123    -0.78900
C689        C  0.47052895  0.17849977  0.61897274     0.81900
N690        N  0.43901379  0.19381851  0.62574350    -0.78800
C691        C  0.43655105  0.22439967  0.64411486     0.82000
N692        N  0.46671874  0.23960124  0.65579888    -0.80500
C693        C  0.44141004  0.87617659  0.35046187     0.79400
N694        N  0.47253803  0.86114438  0.34185309    -0.78900
C695        C  0.50345595  0.87646689  0.35067994     0.81900
N696        N  0.50280351  0.90791570  0.36793119    -0.78800
C697        C  0.47188088  0.92324150  0.37760579     0.82000
N698        N  0.44143471  0.90724151  0.36814598    -0.80500
C699        C  0.44423913  0.68959879  0.16377095     0.79400
N700        N  0.47531725  0.69301442  0.18018619    -0.78900
C701        C  0.50496907  0.68066194  0.16540429     0.81900
N702        N  0.50328967  0.66574746  0.13312573    -0.78800
C703        C  0.47242581  0.66292208  0.11635875     0.82000
N704        N  0.44326434  0.67492995  0.13169733    -0.80500
C705        C  0.79163572  0.50913029  0.36662028     0.79400
N706        N  0.77794452  0.54066125  0.35827414    -0.78900
C707        C  0.79482333  0.57043672  0.36711021     0.81900
N708        N  0.82554465  0.56808830  0.38398488    -0.78800
C709        C  0.83996860  0.53724752  0.39231080     0.82000
N710        N  0.82337831  0.50737310  0.38290353    -0.80500
C711        C  0.61349211  0.60306678  0.16376919     0.79400
N712        N  0.62320151  0.57199562  0.17755386    -0.78900
C713        C  0.61705968  0.54186390  0.16023197     0.81900
N714        N  0.60115209  0.54332653  0.12880175    -0.78800
C715        C  0.59118009  0.57364536  0.11409844     0.82000
N716        N  0.59803321  0.60415963  0.13131100    -0.80500
C717        C  0.48418677  0.69204971  0.82755034     0.79400
N718        N  0.48327628  0.67384882  0.85772224    -0.78900
C719        C  0.45286507  0.66280619  0.87182712     0.81900
N720        N  0.42221267  0.67080934  0.85572000    -0.78800
C721        C  0.42286773  0.68848125  0.82469580     0.82000
N722        N  0.45374301  0.69954349  0.81126478    -0.80500
C723        C  0.46162891  0.89190805  0.64832900     0.79400
N724        N  0.46247581  0.92315403  0.63228635    -0.78900
C725        C  0.49248495  0.93722665  0.62043131     0.81900
N726        N  0.52308537  0.91960442  0.62540860    -0.78800
C727        C  0.52279885  0.88788280  0.64209864     0.82000
N728        N  0.49192652  0.87448710  0.65339905    -0.80500
C729        C  0.80884718  0.57841639  0.63785581     0.79400
N730        N  0.79486069  0.54667240  0.64321320    -0.78900
C731        C  0.81077864  0.51772904  0.63106272     0.81900
N732        N  0.84103050  0.52096290  0.61298029    -0.78800
C733        C  0.85549065  0.55267397  0.60770820     0.82000
N734        N  0.83970147  0.58140975  0.62072518    -0.80500
C735        C  0.61903680  0.57782301  0.82482601     0.79400
N736        N  0.62769963  0.54615054  0.81099646    -0.78900
C737        C  0.61779092  0.51594597  0.82713463     0.81900
N738        N  0.59907262  0.51789957  0.85772778    -0.78800
C739        C  0.58989513  0.54943898  0.87178427     0.82000
N740        N  0.60045066  0.57908528  0.85530809    -0.80500
C741        C  0.33061130  0.50553469  0.83435758     0.79400
N742        N  0.31790536  0.53590456  0.82124661    -0.78900
C743        C  0.32133536  0.56619948  0.83912234     0.81900
N744        N  0.33752532  0.56593034  0.87070055    -0.78800
C745        C  0.35041520  0.53614561  0.88462156     0.82000
N746        N  0.34685185  0.50574129  0.86638424    -0.80500
C747        C  0.14588591  0.60350401  0.62939475     0.79400
N748        N  0.11608595  0.60245626  0.60986001    -0.78900
C749        C  0.09936048  0.57166190  0.60473626     0.81900
N750        N  0.11215779  0.54237877  0.61965903    -0.78800
C751        C  0.14161694  0.54322139  0.63920357     0.82000
N752        N  0.15822823  0.57386757  0.64414956    -0.80500
N753        N  0.01739278  0.47912229  0.48039393    -0.06900
N754        N  0.04454324  0.46230612  0.46665485    -0.59000
N755        N  0.93911507  0.47677384  0.52492560    -0.06600
N756        N  0.91291434  0.46147163  0.54180300    -0.61200
N757        N  0.93538676  0.47348847  0.49089757    -0.06200
N758        N  0.90666601  0.45574956  0.48395706    -0.59000
N759        N  0.02120160  0.48251586  0.51442440    -0.05900
N760        N  0.05097122  0.46793590  0.52444265    -0.61500
C761        C  0.06552833  0.45535681  0.49443991     0.95300
C762        C  0.89287434  0.44821455  0.51584097     0.95000
N763        N  0.93630090  0.57476392  0.57078156    -0.07100
N764        N  0.90585708  0.58496729  0.58324923    -0.59600
N765        N  0.02007254  0.54727590  0.56560897    -0.05200
N766        N  0.04993153  0.53860997  0.58019979    -0.60900
N767        N  0.01727098  0.58138845  0.56320239    -0.07100
N768        N  0.04560543  0.59652277  0.57611190    -0.59900
N769        N  0.93959498  0.54070382  0.57348937    -0.04900
N770        N  0.91128135  0.52720134  0.58767212    -0.61000
Mn771      Mn  0.98045446  0.51111842  0.54584270     1.18400
C772        C  0.89067744  0.55504398  0.59357483     0.97300
C773        C  0.06568196  0.56936868  0.58649632     0.98000
N774        N  0.92428603  0.52645472  0.42907947    -0.07200
N775        N  0.89538747  0.51132051  0.41734141    -0.63500
N776        N  0.00210569  0.56799726  0.41856510    -0.06000
N777        N  0.03068807  0.58206352  0.40541922    -0.64100
N778        N  0.00574771  0.53397553  0.42152658    -0.06700
N779        N  0.03704361  0.52452793  0.41060280    -0.63700
N780        N  0.92170261  0.56058400  0.42654078    -0.05600
N781        N  0.89132506  0.56923549  0.41323184    -0.64400
Mn782      Mn  0.97050785  0.50213101  0.45420541     1.10700
C783        C  0.87514624  0.53854731  0.40758440     0.98600
C784        C  0.05211900  0.55472809  0.40062068     0.98600
N785        N  0.00611292  0.63422350  0.50216983    -0.06700
N786        N  0.03516195  0.65089001  0.51017298    -0.62000
N787        N  0.92022366  0.62567837  0.47697231    -0.06000
N788        N  0.89008189  0.63960553  0.46675488    -0.58800
N789        N  0.92386091  0.62889551  0.51104718    -0.07300
N790        N  0.89617058  0.64490040  0.52458150    -0.61600
N791        N  0.00304379  0.63116428  0.46806556    -0.06300
N792        N  0.03029215  0.64563163  0.45214810    -0.58800
Mn793      Mn  0.97095627  0.60592450  0.53791156     1.20200
Mn794      Mn  0.96133146  0.59711378  0.44620438     1.10100
Cl795      Cl  0.97075083  0.55404400  0.49603017    -0.86800
C796        C  0.05005680  0.65800207  0.47885888     0.95600
C797        C  0.87507869  0.65165666  0.49674034     0.95400
N798        N  0.49815405  0.48600241  0.04522039    -0.06900
N799        N  0.51409247  0.47340182  0.07325036    -0.59000
N800        N  0.45628383  0.47632593  0.96761613    -0.06600
N801        N  0.44284553  0.46198976  0.93918184    -0.61200
N802        N  0.49044702  0.47922169  0.96448150    -0.06200
N803        N  0.50073144  0.46702237  0.93394427    -0.59000
N804        N  0.46399939  0.48345389  0.04849807    -0.05900
N805        N  0.45610209  0.46919817  0.07879451    -0.61500
C806        C  0.48741040  0.46301629  0.09388839     0.95300
C807        C  0.47091172  0.45636654  0.91855889     0.95000
N808        N  0.39010199  0.56052325  0.96476465    -0.07100
N809        N  0.37392493  0.56904640  0.93551611    -0.59600
N810        N  0.39897165  0.53473546  0.05059979    -0.05200
N811        N  0.38497817  0.52450425  0.08079813    -0.60900
N812        N  0.39600996  0.56869868  0.04726933    -0.07100
N813        N  0.38013264  0.58211063  0.07517490    -0.59900
N814        N  0.39314331  0.52652670  0.96721806    -0.04900
N815        N  0.37916534  0.51128647  0.93926356    -0.61000
Mn816      Mn  0.42714195  0.50393772  0.00892709     1.18400
C817        C  0.36704974  0.53825651  0.91977245     0.97300
C818        C  0.37317153  0.55431669  0.09609861     0.98000
N819        N  0.54508455  0.53817651  0.95330983    -0.07200
N820        N  0.56214673  0.52434352  0.92644158    -0.63500
N821        N  0.54760333  0.58147863  0.03202102    -0.06000
N822        N  0.56207265  0.59749059  0.05926455    -0.64100
N823        N  0.55042592  0.54753893  0.03518978    -0.06700
N824        N  0.56694256  0.53978489  0.06442356    -0.63700
N825        N  0.54223632  0.57206090  0.94951633    -0.05600
N826        N  0.55756351  0.58193264  0.91991501    -0.64400
Mn827      Mn  0.52201262  0.51172135  0.99963970     1.10700
C828        C  0.56991819  0.55185192  0.90561599     0.98600
C829        C  0.57428670  0.57101716  0.07921084     0.98600
N830        N  0.45042137  0.62812957  0.03481582    -0.06700
N831        N  0.44036972  0.64037108  0.06539464    -0.62000
N832        N  0.47727461  0.62337819  0.95099929    -0.06000
N833        N  0.48579142  0.63821137  0.92118346    -0.58800
N834        N  0.44305880  0.62126036  0.95405226    -0.07300
N835        N  0.42769798  0.63469277  0.92603147    -0.61600
N836        N  0.48457949  0.63065763  0.03148313    -0.06300
N837        N  0.49834213  0.64440856  0.05994844    -0.58800
Mn838      Mn  0.41876555  0.59569084  0.00021768     1.20200
Mn839      Mn  0.51370399  0.60313795  0.99047319     1.10100
Cl840      Cl  0.47035668  0.55360166  0.99981975    -0.86800
C841        C  0.47046532  0.65030388  0.08062526     0.95600
C842        C  0.45485482  0.64508509  0.90582731     0.95400
N843        N  0.49165670  0.10026091  0.57132383    -0.06900
N844        N  0.50218502  0.12958322  0.58660746    -0.59000
N845        N  0.46614492  0.01491775  0.57840541    -0.06600
N846        N  0.45832260  0.98607458  0.59539028    -0.61200
N847        N  0.50016919  0.01808909  0.57550384    -0.06200
N848        N  0.51621782  0.99119353  0.59028141    -0.59000
N849        N  0.45762450  0.09686055  0.57442044    -0.05900
N850        N  0.44439847  0.12395874  0.59156641    -0.61500
C851        C  0.47241236  0.14435805  0.59923945     0.95300
C852        C  0.48965613  0.97148795  0.60278952     0.95000
N853        N  0.40174466  0.00393137  0.49025896    -0.07100
N854        N  0.38643595  0.97489149  0.48054880    -0.59600
N855        N  0.39767918  0.08609071  0.51998558    -0.05200
N856        N  0.38460609  0.11581125  0.53123807    -0.60900
N857        N  0.39521910  0.08394729  0.48562506    -0.07100
N858        N  0.38060144  0.11232768  0.47296000    -0.59900
N859        N  0.40435556  0.00549787  0.52463672    -0.04900
N860        N  0.39068292  0.97710883  0.53891013    -0.61000
Mn861      Mn  0.43036887  0.05063712  0.55049354     1.18400
C862        C  0.37974047  0.95837229  0.51087755     0.97300
C863        C  0.37407033  0.13171917  0.50166520     0.98000
N864        N  0.54909998  0.01923673  0.51179021    -0.07200
N865        N  0.56328538  0.99103162  0.52529479    -0.63500
N866        N  0.53997530  0.09639090  0.47143643    -0.06000
N867        N  0.55357607  0.12440323  0.45643125    -0.64100
N868        N  0.54224914  0.09891245  0.50577315    -0.06700
N869        N  0.55725617  0.12834123  0.51474937    -0.63700
N870        N  0.54581676  0.01594052  0.47758938    -0.05600
N871        N  0.55759976  0.98540604  0.46732166    -0.64400
Mn872      Mn  0.52199670  0.05959424  0.54183056     1.10700
C873        C  0.56833573  0.97036504  0.49729397     0.98600
C874        C  0.56416714  0.14396055  0.48394905     0.98600
N875        N  0.44455033  0.08527129  0.42143218    -0.06700
N876        N  0.42913636  0.11299953  0.40746495    -0.62000
N877        N  0.48634664  0.00516977  0.42210799    -0.06000
N878        N  0.49922387  0.97780338  0.40497469    -0.58800
N879        N  0.45224950  0.00241155  0.42503412    -0.07300
N880        N  0.44138685  0.97313888  0.40984466    -0.61600
N881        N  0.47861666  0.08753522  0.41820732    -0.06300
N882        N  0.48708012  0.11661275  0.40195153    -0.58800
Mn883      Mn  0.42225314  0.04362963  0.45481582     1.20200
Mn884      Mn  0.51378622  0.05125755  0.44622028     1.10100
Cl885      Cl  0.47208407  0.05127361  0.49836367    -0.86800
C886        C  0.45614170  0.13227455  0.39513589     0.95600
C887        C  0.47092257  0.95776096  0.39723235     0.95400
O888        O  0.15169792  0.38116109  0.29738782    -0.89000
C889        C  0.20326344  0.19301023  0.28757359     1.11100
O890        O  0.19599082  0.33592571  0.24934623    -1.36800
O891        O  0.23977803  0.26653187  0.34803010    -0.90500
O892        O  0.18602033  0.41296474  0.26314822    -0.91100
O893        O  0.26976828  0.38253062  0.26400409    -0.80000
O894        O  0.18997340  0.32024741  0.32159179    -1.02000
C895        C  0.31382033  0.28897673  0.28547356     1.21100
O896        O  0.25474269  0.31396293  0.21611651    -1.36900
Mn897      Mn  0.20471330  0.28756464  0.22078089     1.82100
O898        O  0.29905742  0.31755551  0.29285640    -0.79000
O899        O  0.27000674  0.22746235  0.31780536    -0.88400
C900        C  0.24873189  0.22731182  0.19265821     1.12200
C901        C  0.26493095  0.24510061  0.34517971     1.06900
O902        O  0.18069642  0.30318870  0.17184318    -0.80000
O903        O  0.22892154  0.27665963  0.27090969    -1.33700
O904        O  0.20207624  0.35342897  0.17740032    -0.99200
C905        C  0.33225023  0.35282982  0.20005195     1.05600
Mn906      Mn  0.26415587  0.23484412  0.26481172     1.48600
O907        O  0.30652093  0.36381765  0.18212163    -0.88400
Mn908      Mn  0.19146622  0.38120759  0.21906098     1.49600
O909        O  0.11672012  0.33367787  0.24735362    -0.92300
C910        C  0.20789934  0.34090130  0.33757344     1.18800
C911        C  0.11343242  0.35540667  0.22252976     1.10900
Mn912      Mn  0.24853531  0.33010630  0.27036498     1.81000
O913        O  0.26842192  0.24061019  0.21368536    -0.97400
Mn914      Mn  0.15519599  0.32932242  0.28569642     1.49300
C915        C  0.16748030  0.40909232  0.29048713     1.07400
Mn916      Mn  0.29868681  0.28225081  0.21081281     1.49900
C917        C  0.28062004  0.29822576  0.13314232     1.10300
O918        O  0.24222274  0.38678443  0.21679350    -1.03200
O919        O  0.22550446  0.19673822  0.26326815    -0.92900
C920        C  0.26291145  0.40011441  0.23684582     1.21600
O921        O  0.30055936  0.27154607  0.26187374    -1.03600
O922        O  0.19565721  0.21669819  0.30923172    -0.91000
O923        O  0.29920515  0.28624743  0.15747080    -0.90600
O924        O  0.13766730  0.37609302  0.21330214    -0.90600
Mn925      Mn  0.19706902  0.27026518  0.31450803     1.47900
O926        O  0.21834780  0.24041906  0.19152498    -0.79100
C927        C  0.18399785  0.33385787  0.16007636     1.14600
O928        O  0.23656355  0.34865691  0.32306066    -0.77800
O929        O  0.15594414  0.26005981  0.23141274    -0.77400
Mn930      Mn  0.25288818  0.35489251  0.17919146     1.51100
O931        O  0.33200684  0.32379836  0.21539412    -0.89800
O932        O  0.15856000  0.27916876  0.28292951    -0.97300
O933        O  0.25829598  0.32198145  0.13697393    -0.92300
C934        C  0.14419539  0.25992744  0.26244350     1.12400
C935        C  0.64181550  0.65661319  0.76599725    -0.21100
C936        C  0.66493281  0.67543538  0.78763743    -0.07700
C937        C  0.67307090  0.66070761  0.82110296     0.13200
C938        C  0.65738097  0.62928709  0.83178129    -0.21200
C939        C  0.63439422  0.61077062  0.81031354    -0.07700
C940        C  0.62669624  0.62457494  0.77676293     0.13200
C941        C  0.60196024  0.60669960  0.75203295    -0.24500
H942        H  0.63522951  0.66701429  0.74047770     0.14500
H943        H  0.66344619  0.61868838  0.85737621     0.14500
C944        C  0.69851204  0.67727058  0.84633256    -0.24500
H945        H  0.57993639  0.62443652  0.74587438     0.04700
H946        H  0.59086802  0.58239174  0.76298647     0.07900
H947        H  0.61590304  0.60012735  0.72741425     0.07900
H948        H  0.68876898  0.70318046  0.85465557     0.07900
H949        H  0.72461399  0.67964938  0.83390768     0.07900
H950        H  0.70200470  0.66156836  0.87047861     0.04700
C951        C  0.75582123  0.64443466  0.68748931    -0.21100
C952        C  0.77954078  0.65258086  0.71415542    -0.07700
C953        C  0.81217567  0.63593937  0.71585079     0.13200
C954        C  0.82123311  0.61254911  0.68959865    -0.21200
C955        C  0.79834832  0.60565327  0.66192511    -0.07700
C956        C  0.76489464  0.62074018  0.66117921     0.13200
C957        C  0.73967387  0.61294242  0.63202574    -0.24500
H958        H  0.73118599  0.65822962  0.68611453     0.14500
H959        H  0.84629405  0.59946458  0.69066506     0.14500
C960        C  0.83773665  0.64366385  0.74485979    -0.24500
H961        H  0.71482502  0.62744927  0.63524299     0.04700
H962        H  0.73347788  0.58472260  0.63165047     0.07900
H963        H  0.75145876  0.62047866  0.60656867     0.07900
H964        H  0.82545624  0.63784078  0.77053079     0.07900
H965        H  0.84552724  0.67148626  0.74421873     0.07900
H966        H  0.86179712  0.62771525  0.74247581     0.04700
C967        C  0.61139089  0.86825556  0.68136272    -0.21100
C968        C  0.61057085  0.83162986  0.68524903    -0.07700
C969        C  0.58209855  0.81332513  0.67107811     0.13200
C970        C  0.55475060  0.83222101  0.65495946    -0.21200
C971        C  0.55541349  0.86903782  0.65216974    -0.07700
C972        C  0.58498578  0.88697200  0.66464615     0.13200
C973        C  0.58845239  0.92604861  0.66235870    -0.24500
H974        H  0.63260716  0.88307140  0.69268291     0.14500
H975        H  0.53208000  0.81822023  0.64554791     0.14500
C976        C  0.57955131  0.77443026  0.67466277    -0.24500
H977        H  0.61313369  0.93554892  0.67425259     0.04700
H978        H  0.56652685  0.93879855  0.67639439     0.07900
H979        H  0.58863663  0.93417907  0.63450388     0.07900
H980        H  0.57973433  0.76709284  0.70276841     0.07900
H981        H  0.60202725  0.76195172  0.66127393     0.07900
H982        H  0.55519046  0.76419821  0.66277485     0.04700
C983        C  0.58005614  0.71514742  0.81853735    -0.21100
C984        C  0.57806038  0.74905466  0.80489954    -0.07700
C985        C  0.54506128  0.76234019  0.79485000     0.13200
C986        C  0.51516589  0.74192688  0.80042656    -0.21200
C987        C  0.51711300  0.70907505  0.81655357    -0.07700
C988        C  0.55027952  0.69521376  0.82502605     0.13200
C989        C  0.55500962  0.65969191  0.84125881    -0.24500
H990        H  0.60527092  0.70437580  0.82551113     0.14500
H991        H  0.48982858  0.75267984  0.79392465     0.14500
C992        C  0.54056270  0.79844085  0.78000503    -0.24500
H993        H  0.58295611  0.65242098  0.84307243     0.04700
H994        H  0.54164446  0.63965223  0.82518766     0.07900
H995        H  0.54481098  0.65939340  0.86841343     0.07900
H996        H  0.55458038  0.80066285  0.75467913     0.07900
H997        H  0.55073600  0.81804440  0.79877011     0.07900
H998        H  0.51269758  0.80468396  0.77502288     0.04700
C999        C  0.78830818  0.73520493  0.62595070    -0.21100
C1000       C  0.75279347  0.73120709  0.63529609    -0.07700
C1001       C  0.73128624  0.71233175  0.61168186     0.13200
C1002       C  0.74519747  0.70034655  0.57914519    -0.21200
C1003       C  0.78063087  0.70520866  0.56982717    -0.07700
C1004       C  0.80235300  0.72254954  0.59423857     0.13200
C1005       C  0.84037508  0.72938441  0.58656155    -0.24500
H1006       H  0.80562261  0.74889809  0.64359575     0.14500
H1007       H  0.72833330  0.68677763  0.56098288     0.14500
C1008       C  0.69385368  0.70443263  0.62054420    -0.24500
H1009       H  0.85293361  0.74520404  0.60737811     0.04700
H1010       H  0.84299439  0.74383169  0.56153500     0.07900
H1011       H  0.85480764  0.70441239  0.58491241     0.07900
H1012       H  0.67909947  0.72883620  0.62455504     0.07900
H1013       H  0.69261134  0.68879880  0.64490224     0.07900
H1014       H  0.68082210  0.68942670  0.59942568     0.04700
C1015       C  0.67396000  0.89130694  0.60365143    -0.21100
C1016       C  0.67791969  0.85565211  0.61011909    -0.07700
C1017       C  0.65864943  0.83130876  0.59061873     0.13200
C1018       C  0.63530380  0.84353867  0.56530729    -0.21200
C1019       C  0.63082604  0.87943572  0.55949346    -0.07700
C1020       C  0.65094420  0.90368963  0.57865866     0.13200
C1021       C  0.64950622  0.94255447  0.57273067    -0.24500
H1022       H  0.68818250  0.90997391  0.61947843     0.14500
H1023       H  0.62032687  0.82498540  0.55001965     0.14500
C1024       C  0.66155621  0.79292042  0.59741487    -0.24500
H1025       H  0.66863818  0.95679980  0.58923934     0.04700
H1026       H  0.62327021  0.95268766  0.57959794     0.07900
H1027       H  0.65577180  0.94858674  0.54501697     0.07900
H1028       H  0.65433061  0.78738355  0.62499437     0.07900
H1029       H  0.68877408  0.78429213  0.59250835     0.07900
H1030       H  0.64400753  0.77758857  0.58015386     0.04700
C1031       C  0.89556140  0.72298482  0.86193587    -0.21100
C1032       C  0.92533008  0.74093460  0.85045125    -0.07700
C1033       C  0.92211988  0.76433807  0.82190387     0.13200
C1034       C  0.89025842  0.76609148  0.80383672    -0.21200
C1035       C  0.86191206  0.74457500  0.81278045    -0.07700
C1036       C  0.86465630  0.72294556  0.84287435     0.13200
C1037       C  0.83654124  0.69783183  0.85465926    -0.24500
H1038       H  0.89713728  0.70645097  0.88483414     0.14500
H1039       H  0.88794289  0.78365307  0.78175326     0.14500
C1040       C  0.95178216  0.78706526  0.80954876    -0.24500
H1041       H  0.81261464  0.71206200  0.86214499     0.04700
H1042       H  0.84444001  0.68244560  0.87794534     0.07900
H1043       H  0.83075491  0.67896761  0.83341593     0.07900
H1044       H  0.97318775  0.77081741  0.79878026     0.07900
H1045       H  0.96151957  0.80319558  0.83159460     0.07900
H1046       H  0.94348548  0.80508605  0.78840656     0.04700
C1047       C  0.88458107  0.89973050  0.71044881    -0.21100
C1048       C  0.88821479  0.89429681  0.67400274    -0.07700
C1049       C  0.86484535  0.87132467  0.65743504     0.13200
C1050       C  0.84002628  0.85326302  0.67755385    -0.21200
C1051       C  0.83642776  0.85792638  0.71421910    -0.07700
C1052       C  0.85863720  0.88243743  0.73055710     0.13200
C1053       C  0.85586001  0.88977430  0.76911215    -0.24500
H1054       H  0.90275257  0.91702510  0.72341138     0.14500
H1055       H  0.82314600  0.83509078  0.66405012     0.14500
C1056       C  0.86697704  0.86433841  0.61865737    -0.24500
H1057       H  0.87559735  0.90911959  0.77775212     0.04700
H1058       H  0.86003440  0.86539726  0.78413834     0.07900
H1059       H  0.82963528  0.90047646  0.77520568     0.07900
H1060       H  0.89315292  0.85393485  0.61185186     0.07900
H1061       H  0.86226116  0.88883828  0.60402441     0.07900
H1062       H  0.84717091  0.84504898  0.61001552     0.04700
C1063       C  0.69820748  0.97542380  0.84140273    -0.21100
C1064       C  0.66163829  0.98055624  0.84327111    -0.07700
C1065       C  0.64018082  0.95356641  0.82983642     0.13200
C1066       C  0.65540547  0.92366004  0.81445241    -0.21200
C1067       C  0.69188869  0.91843745  0.81229921    -0.07700
C1068       C  0.71345724  0.94484101  0.82669211     0.13200
C1069       C  0.75253852  0.94147945  0.82561398    -0.24500
H1070       H  0.71518010  0.99574473  0.85144516     0.14500
H1071       H  0.63822075  0.90402819  0.80362561     0.14500
C1072       C  0.60095258  0.95653332  0.83002537    -0.24500
H1073       H  0.76562428  0.96461967  0.83709899     0.04700
H1074       H  0.76142392  0.93877779  0.79809548     0.07900
H1075       H  0.76074234  0.91827054  0.84079537     0.07900
H1076       H  0.59282347  0.98051950  0.81604091     0.07900
H1077       H  0.59122487  0.95717513  0.85738155     0.07900
H1078       H  0.58830614  0.93405680  0.81684753     0.04700
C1079       C  0.81360201  0.96298925  0.64270364    -0.21100
C1080       C  0.82651387  0.98435143  0.66934297    -0.07700
C1081       C  0.81838800  0.97673013  0.70468201     0.13200
C1082       C  0.79499068  0.94972395  0.71207029    -0.21200
C1083       C  0.78028835  0.93000179  0.68511768    -0.07700
C1084       C  0.79044062  0.93610201  0.64993296     0.13200
C1085       C  0.77587269  0.91570434  0.61941105    -0.24500
H1086       H  0.81974673  0.96877704  0.61560305     0.14500
H1087       H  0.78851430  0.94360191  0.73906356     0.14500
C1088       C  0.83483048  0.99630901  0.73459109    -0.24500
H1089       H  0.78413313  0.92670468  0.59383330     0.04700
H1090       H  0.74702875  0.91633004  0.62024320     0.07900
H1091       H  0.78523722  0.88841328  0.62000809     0.07900
H1092       H  0.82578324  0.02365141  0.73502114     0.07900
H1093       H  0.86367658  0.99555272  0.73196037     0.07900
H1094       H  0.82787147  0.98460434  0.76026371     0.04700
C1095       C  0.82455731  0.77061390  0.92225893    -0.21100
C1096       C  0.80782245  0.74367264  0.94090099    -0.07700
C1097       C  0.77494949  0.73215182  0.92891788     0.13200
C1098       C  0.76002732  0.74700042  0.89869943    -0.21200
C1099       C  0.77700300  0.77312457  0.87897328    -0.07700
C1100       C  0.80966700  0.78542521  0.89154920     0.13200
C1101       C  0.82933042  0.81348018  0.87240621    -0.24500
H1102       H  0.84966136  0.77981706  0.93151346     0.14500
H1103       H  0.73493666  0.73731287  0.88991729     0.14500
C1104       C  0.75561540  0.70366951  0.94789170    -0.24500
H1105       H  0.85468575  0.81937897  0.88516837     0.04700
H1106       H  0.81360009  0.83772882  0.87200197     0.07900
H1107       H  0.83476134  0.80516290  0.84515644     0.07900
H1108       H  0.73025648  0.69756295  0.93521663     0.07900
H1109       H  0.75032880  0.71181175  0.97527061     0.07900
H1110       H  0.77159004  0.67956986  0.94804818     0.04700
C1111       C  0.62279352  0.87884153  0.93354998    -0.21100
C1112       C  0.64682006  0.90557979  0.94016630    -0.07700
C1113       C  0.67882601  0.90685743  0.92221773     0.13200
C1114       C  0.68600515  0.88099516  0.89738760    -0.21200
C1115       C  0.66175356  0.85436241  0.89099071    -0.07700
C1116       C  0.62973817  0.85335424  0.90883664     0.13200
C1117       C  0.60279383  0.82559322  0.90151930    -0.24500
H1118       H  0.59858326  0.87762176  0.94825305     0.14500
H1119       H  0.70987662  0.88212616  0.88217635     0.14500
C1120       C  0.70456091  0.93573694  0.92861658    -0.24500
H1121       H  0.57953945  0.82831179  0.91868725     0.04700
H1122       H  0.61432838  0.79948428  0.90607366     0.07900
H1123       H  0.59383081  0.82737015  0.87395761     0.07900
H1124       H  0.71322896  0.93527193  0.95631894     0.07900
H1125       H  0.69205644  0.96119283  0.92297933     0.07900
H1126       H  0.72795196  0.93316854  0.91160600     0.04700
C1127       C  0.79505926  0.66588901  0.34215502    -0.21100
C1128       C  0.77551406  0.66517046  0.31113173    -0.07700
C1129       C  0.75739995  0.63418339  0.30209121     0.13200
C1130       C  0.76202585  0.60437637  0.32276111    -0.21200
C1131       C  0.78452327  0.60437708  0.35181012    -0.07700
C1132       C  0.80012910  0.63620740  0.36240983     0.13200
C1133       C  0.82334906  0.63972796  0.39415572    -0.24500
H1134       H  0.80789196  0.68970751  0.35020408     0.14500
H1135       H  0.74944293  0.58039353  0.31484328     0.14500
C1136       C  0.73375540  0.63152906  0.27060407    -0.24500
H1137       H  0.82878155  0.66740776  0.40049726     0.04700
H1138       H  0.84903828  0.62741435  0.38916236     0.07900
H1139       H  0.81075213  0.62778004  0.41736721     0.07900
H1140       H  0.74889584  0.63590133  0.24621602     0.07900
H1141       H  0.71236841  0.65090047  0.27275157     0.07900
H1142       H  0.72145998  0.60542790  0.26841159     0.04700
C1143       C  0.65900603  0.64723577  0.16614575    -0.21100
C1144       C  0.62819879  0.63450940  0.18053163    -0.07700
C1145       C  0.61734843  0.64678722  0.21375719     0.13200
C1146       C  0.63633829  0.67358158  0.23055016    -0.21200
C1147       C  0.66717294  0.68687698  0.21579942    -0.07700
C1148       C  0.67918443  0.67228117  0.18335139     0.13200
C1149       C  0.71340298  0.68206410  0.16596204    -0.24500
H1150       H  0.66811036  0.63632682  0.14156083     0.14500
H1151       H  0.62709299  0.68407278  0.25517442     0.14500
C1152       C  0.58600962  0.63131427  0.23163486    -0.24500
H1153       H  0.71942111  0.66525557  0.14307461     0.04700
H1154       H  0.73528904  0.67900256  0.18473557     0.07900
H1155       H  0.71228351  0.70909141  0.15582904     0.07900
H1156       H  0.59074715  0.60333149  0.23700367     0.07900
H1157       H  0.56273037  0.63380340  0.21460829     0.07900
H1158       H  0.58040489  0.64447303  0.25690981     0.04700
C1159       C  0.56986555  0.73498321  0.21456135    -0.21100
C1160       C  0.59443607  0.74008356  0.18775279    -0.07700
C1161       C  0.59316340  0.71826958  0.15756093     0.13200
C1162       C  0.56596542  0.69470131  0.15402036    -0.21200
C1163       C  0.53896857  0.69305166  0.17851616    -0.07700
C1164       C  0.54272731  0.71081870  0.21076896     0.13200
C1165       C  0.51950363  0.70407222  0.24188009    -0.24500
H1166       H  0.57209091  0.74947005  0.23882934     0.14500
H1167       H  0.56445472  0.67950650  0.13018578     0.14500
C1168       C  0.61858365  0.72036130  0.12734228    -0.24500
H1169       H  0.53590899  0.69804783  0.26504602     0.04700
H1170       H  0.50216099  0.68130808  0.23794098     0.07900
H1171       H  0.50356958  0.72751421  0.24763381     0.07900
H1172       H  0.64525678  0.71325781  0.13572125     0.07900
H1173       H  0.61836549  0.74692700  0.11659973     0.07900
H1174       H  0.61174876  0.70248035  0.10555051     0.04700
C1175       C  0.58565046  0.81890991  0.33491464    -0.21100
C1176       C  0.60027498  0.83410254  0.30454981    -0.07700
C1177       C  0.58168446  0.86294711  0.28968682     0.13200
C1178       C  0.55112496  0.87603347  0.30585430    -0.21200
C1179       C  0.53721046  0.86150571  0.33637920    -0.07700
C1180       C  0.55455687  0.83214868  0.35077447     0.13200
C1181       C  0.54060592  0.81526041  0.38339686    -0.24500
H1182       H  0.59900873  0.79709659  0.34685039     0.14500
H1183       H  0.53757509  0.89793331  0.29423699     0.14500
C1184       C  0.59302442  0.88028177  0.25608300    -0.24500
H1185       H  0.55713674  0.79304602  0.39178279     0.04700
H1186       H  0.51378404  0.80542200  0.37858408     0.07900
H1187       H  0.53989970  0.83458575  0.40500392     0.07900
H1188       H  0.59507467  0.86061986  0.23488033     0.07900
H1189       H  0.61836506  0.89374603  0.25984497     0.07900
H1190       H  0.57409679  0.90032141  0.24724939     0.04700
C1191       C  0.62988968  0.87962246  0.37741231    -0.21100
C1192       C  0.65807223  0.85658802  0.38194874    -0.07700
C1193       C  0.65871533  0.83488577  0.41176308     0.13200
C1194       C  0.63436093  0.84085268  0.43836101    -0.21200
C1195       C  0.61070753  0.86883611  0.43642476    -0.07700
C1196       C  0.60623568  0.88613728  0.40410685     0.13200
C1197       C  0.57899135  0.91373444  0.39785788    -0.24500
H1198       H  0.62724745  0.89450649  0.35347150     0.14500
H1199       H  0.63632886  0.82576478  0.46222890     0.14500
C1200       C  0.68543451  0.80654961  0.41676019    -0.24500
H1201       H  0.57451862  0.91808021  0.36949370     0.04700
H1202       H  0.58762957  0.93897172  0.40901601     0.07900
H1203       H  0.55392436  0.90557616  0.40981263     0.07900
H1204       H  0.68407981  0.78790896  0.39460643     0.07900
H1205       H  0.68089219  0.79162166  0.44122372     0.07900
H1206       H  0.71192450  0.81803985  0.41857955     0.04700
C1207       C  0.73573498  0.71457111  0.38780520    -0.21100
C1208       C  0.74923578  0.74736821  0.37768863    -0.07700
C1209       C  0.77390856  0.76278451  0.40103825     0.13200
C1210       C  0.78585380  0.74512246  0.43102662    -0.21200
C1211       C  0.77396747  0.71204712  0.43998218    -0.07700
C1212       C  0.74759292  0.69699373  0.41864194     0.13200
C1213       C  0.73180613  0.66257041  0.42853708    -0.24500
H1214       H  0.71652696  0.70217822  0.37116084     0.14500
H1215       H  0.80543969  0.75715014  0.44755342     0.14500
C1216       C  0.78977617  0.79744833  0.39390651    -0.24500
H1217       H  0.71174411  0.65416075  0.40935322     0.04700
H1218       H  0.71923904  0.66475459  0.45464023     0.07900
H1219       H  0.75229927  0.64227557  0.42967689     0.07900
H1220       H  0.76939689  0.81740416  0.38944345     0.07900
H1221       H  0.80600537  0.79355425  0.37067130     0.07900
H1222       H  0.80698467  0.80670693  0.41536437     0.04700
C1223       C  0.62684246  0.87347099  0.06703723    -0.21100
C1224       C  0.64769138  0.90255318  0.06030209    -0.07700
C1225       C  0.68095151  0.90536171  0.07588449     0.13200
C1226       C  0.69172427  0.87963068  0.09968678    -0.21200
C1227       C  0.67023213  0.85096368  0.10696773    -0.07700
C1228       C  0.63806784  0.84732500  0.08952130     0.13200
C1229       C  0.61619267  0.81507741  0.09351876    -0.24500
H1230       H  0.60227576  0.87039116  0.05327120     0.14500
H1231       H  0.71619771  0.88251542  0.11357008     0.14500
C1232       C  0.70445712  0.93574415  0.06795196    -0.24500
H1233       H  0.59194294  0.81629736  0.07767435     0.04700
H1234       H  0.60847517  0.81118120  0.12122552     0.07900
H1235       H  0.63175068  0.79263273  0.08408112     0.07900
H1236       H  0.69080547  0.96042651  0.07434424     0.07900
H1237       H  0.71150237  0.93575161  0.03977848     0.07900
H1238       H  0.72896956  0.93462432  0.08340223     0.04700
C1239       C  0.81555055  0.77813525  0.07491666    -0.21100
C1240       C  0.81843532  0.74159159  0.07071298    -0.07700
C1241       C  0.80951009  0.72055320  0.09994296     0.13200
C1242       C  0.79689479  0.73607657  0.13099374    -0.21200
C1243       C  0.79276508  0.77237525  0.13489134    -0.07700
C1244       C  0.80327476  0.79367534  0.10650510     0.13200
C1245       C  0.80041518  0.83264881  0.10886554    -0.24500
H1246       H  0.82253296  0.79474851  0.05310729     0.14500
H1247       H  0.78925434  0.71927517  0.15244170     0.14500
C1248       C  0.81134297  0.68137868  0.09843657    -0.24500
H1249       H  0.77284413  0.84021676  0.11360093     0.04700
H1250       H  0.80928655  0.84548551  0.08438775     0.07900
H1251       H  0.81693746  0.84232434  0.13065584     0.07900
H1252       H  0.83883464  0.67293894  0.09506049     0.07900
H1253       H  0.79515411  0.67156380  0.07645720     0.07900
H1254       H  0.80146965  0.66914300  0.12285280     0.04700
C1255       C  0.69019275  0.96926261  0.15034542    -0.21100
C1256       C  0.65324197  0.96961894  0.14959055    -0.07700
C1257       C  0.63487368  0.94100329  0.16334099     0.13200
C1258       C  0.65354238  0.91422288  0.17921077    -0.21200
C1259       C  0.69042383  0.91422173  0.18158316    -0.07700
C1260       C  0.70901737  0.94154071  0.16569446     0.13200
C1261       C  0.74824625  0.94213714  0.16592019    -0.24500
H1262       H  0.70432771  0.99127890  0.13980092     0.14500
H1263       H  0.63859823  0.89345807  0.19104740     0.14500
C1264       C  0.59548009  0.93922800  0.16367454    -0.24500
H1265       H  0.75864413  0.96552089  0.15241178     0.04700
H1266       H  0.75841662  0.91875064  0.15220434     0.07900
H1267       H  0.75797813  0.94228266  0.19326738     0.07900
H1268       H  0.58550860  0.93890004  0.13641682     0.07900
H1269       H  0.58458861  0.96190975  0.17801585     0.07900
H1270       H  0.58569235  0.91531912  0.17675321     0.04700
C1271       C  0.78358967  0.00866005  0.29537186    -0.21100
C1272       C  0.81486576  0.00651206  0.31462363    -0.07700
C1273       C  0.82687426  0.97335528  0.32542463     0.13200
C1274       C  0.80629506  0.94411917  0.31878438    -0.21200
C1275       C  0.77372229  0.94652513  0.30212058    -0.07700
C1276       C  0.76276097  0.97922668  0.28901951     0.13200
C1277       C  0.72873709  0.98392730  0.26973426    -0.24500
H1278       H  0.77435067  0.03387183  0.28660106     0.14500
H1279       H  0.81549208  0.91902279  0.32787178     0.14500
C1280       C  0.86109362  0.96798699  0.34421340    -0.24500
H1281       H  0.72426264  0.01151373  0.26227494     0.04700
H1282       H  0.70662114  0.97568738  0.28660018     0.07900
H1283       H  0.72889681  0.96837996  0.24526433     0.07900
H1284       H  0.86699264  0.94000047  0.34793814     0.07900
H1285       H  0.86006961  0.97939144  0.37083546     0.07900
H1286       H  0.88275709  0.97963852  0.32885843     0.04700
C1287       C  0.86377286  0.88866225  0.26094775    -0.21100
C1288       C  0.84659573  0.86528187  0.28383664    -0.07700
C1289       C  0.86303177  0.85920406  0.31680749     0.13200
C1290       C  0.89411283  0.87616006  0.32603211    -0.21200
C1291       C  0.91080392  0.89932682  0.30365899    -0.07700
C1292       C  0.89568581  0.90543979  0.27036221     0.13200
C1293       C  0.91284812  0.93012266  0.24517296    -0.24500
H1294       H  0.85224354  0.89395174  0.23560790     0.14500
H1295       H  0.90585510  0.87107984  0.35136327     0.14500
C1296       C  0.84824803  0.83502133  0.34336857    -0.24500
H1297       H  0.89763523  0.93266226  0.22058338     0.04700
H1298       H  0.93930812  0.92048579  0.23839355     0.07900
H1299       H  0.91506003  0.95627843  0.25734910     0.07900
H1300       H  0.84657132  0.80855381  0.33179965     0.07900
H1301       H  0.82245365  0.84536685  0.35146027     0.07900
H1302       H  0.86450647  0.83297292  0.36734352     0.04700
C1303       C  0.87525370  0.77119813  0.18344228    -0.21100
C1304       C  0.86921359  0.74818409  0.21121262    -0.07700
C1305       C  0.88647651  0.71594795  0.21273413     0.13200
C1306       C  0.90863184  0.70668397  0.18547574    -0.21200
C1307       C  0.91385485  0.72904990  0.15704227    -0.07700
C1308       C  0.89789792  0.76206008  0.15624317     0.13200
C1309       C  0.90359975  0.78677358  0.12619772    -0.24500
H1310       H  0.86056558  0.79531972  0.18197661     0.14500
H1311       H  0.92231939  0.68195973  0.18652716     0.14500
C1312       C  0.88069686  0.69106537  0.24274329    -0.24500
H1313       H  0.88803276  0.81097167  0.12931533     0.04700
H1314       H  0.89568670  0.77407728  0.10133175     0.07900
H1315       H  0.93152982  0.79421572  0.12460580     0.07900
H1316       H  0.85296040  0.68276448  0.24377251     0.07900
H1317       H  0.88759660  0.70408488  0.26774408     0.07900
H1318       H  0.89701829  0.66731315  0.24014784     0.04700
C1319       C  0.15582001  0.68962502  0.67477956    -0.21100
C1320       C  0.19232529  0.69221623  0.67842185    -0.07700
C1321       C  0.21369440  0.66711729  0.66201367     0.13200
C1322       C  0.19779206  0.63954591  0.64363202    -0.21200
C1323       C  0.16120204  0.63677984  0.64101123    -0.07700
C1324       C  0.14002206  0.66268552  0.65623551     0.13200
C1325       C  0.10064222  0.66100868  0.65545384    -0.24500
H1326       H  0.13901294  0.70839169  0.68762386     0.14500
H1327       H  0.21393482  0.61916566  0.63247126     0.14500
C1328       C  0.25281098  0.66802113  0.66551772    -0.24500
H1329       H  0.08848754  0.68286327  0.67010902     0.04700
H1330       H  0.09149804  0.63638818  0.66760982     0.07900
H1331       H  0.09129512  0.66263268  0.62802754     0.07900
H1332       H  0.26015830  0.66706886  0.69360094     0.07900
H1333       H  0.26321327  0.69221924  0.65355504     0.07900
H1334       H  0.26529415  0.64555753  0.65214881     0.04700
C1335       C  0.28923522  0.61999719  0.85338438    -0.21100
C1336       C  0.30338400  0.59845526  0.82731579    -0.07700
C1337       C  0.29946198  0.60817887  0.79169578     0.13200
C1338       C  0.28182563  0.63932308  0.78337891    -0.21200
C1339       C  0.26824258  0.66086924  0.80976035    -0.07700
C1340       C  0.27171700  0.65081540  0.84519456     0.13200
C1341       C  0.25601901  0.67183829  0.87472495    -0.24500
H1342       H  0.29146890  0.61245907  0.88059669     0.14500
H1343       H  0.27921421  0.64722724  0.75631701     0.14500
C1344       C  0.31459939  0.58666294  0.76242029    -0.24500
H1345       H  0.26933640  0.69736999  0.87704531     0.04700
H1346       H  0.22773729  0.67588648  0.86996401     0.07900
H1347       H  0.25880030  0.65853051  0.90035419     0.07900
H1348       H  0.30134384  0.56102046  0.76118800     0.07900
H1349       H  0.34300109  0.58286385  0.76668748     0.07900
H1350       H  0.31111090  0.59946461  0.73660404     0.04700
C1351       C  0.34817998  0.71292079  0.76440592    -0.21100
C1352       C  0.33791143  0.74458427  0.77955819    -0.07700
C1353       C  0.35491621  0.75617355  0.81083392     0.13200
C1354       C  0.38092395  0.73563793  0.82572678    -0.21200
C1355       C  0.39109018  0.70432572  0.81055202    -0.07700
C1356       C  0.37495414  0.69281484  0.77946078     0.13200
C1357       C  0.38596991  0.65935099  0.76235606    -0.24500
H1358       H  0.33501085  0.70368828  0.74112753     0.14500
H1359       H  0.39433729  0.74457715  0.84906674     0.14500
C1360       C  0.34677931  0.79028260  0.82909287    -0.24500
H1361       H  0.37034069  0.65377978  0.73853465     0.04700
H1362       H  0.38237112  0.63748445  0.78099302     0.07900
H1363       H  0.41387671  0.66095775  0.75468546     0.07900
H1364       H  0.32040428  0.78937135  0.84109880     0.07900
H1365       H  0.34873795  0.81222005  0.81031997     0.07900
H1366       H  0.36525277  0.79589406  0.85075816     0.04700
C1367       C  0.36520265  0.87957806  0.66695458    -0.21100
C1368       C  0.36594014  0.86197456  0.69912758    -0.07700
C1369       C  0.39858983  0.85057154  0.71243491     0.13200
C1370       C  0.42928912  0.85911274  0.69414573    -0.21200
C1371       C  0.42837423  0.87911796  0.66337178    -0.07700
C1372       C  0.39564616  0.88867593  0.64919372     0.13200
C1373       C  0.39189345  0.90860608  0.61541758    -0.24500
H1374       H  0.34045099  0.88745198  0.65583223     0.14500
H1375       H  0.45429983  0.85150861  0.70493301     0.14500
C1376       C  0.40185354  0.83042433  0.74615125    -0.24500
H1377       H  0.36411937  0.91151265  0.60795464     0.04700
H1378       H  0.40572376  0.89476484  0.59398723     0.07900
H1379       H  0.40198042  0.93548150  0.61826117     0.07900
H1380       H  0.38723231  0.80554052  0.74415807     0.07900
H1381       H  0.39166852  0.84617172  0.76828417     0.07900
H1382       H  0.42943443  0.82387958  0.75219490     0.04700
C1383       C  0.27089589  0.86439128  0.61224754    -0.21100
C1384       C  0.28330665  0.83432152  0.62912178    -0.07700
C1385       C  0.31456881  0.81857569  0.61703093     0.13200
C1386       C  0.33234784  0.83353164  0.58846217    -0.21200
C1387       C  0.31983079  0.86392164  0.57256965    -0.07700
C1388       C  0.28878632  0.87941065  0.58443405     0.13200
C1389       C  0.27406681  0.91162213  0.56728628    -0.24500
H1390       H  0.24689944  0.87657958  0.62094104     0.14500
H1391       H  0.35594970  0.82155857  0.57846570     0.14500
C1392       C  0.32963523  0.78666883  0.63418649    -0.24500
H1393       H  0.24936999  0.92020784  0.57984985     0.04700
H1394       H  0.26851569  0.90634810  0.53926662     0.07900
H1395       H  0.29311738  0.93330112  0.56933528     0.07900
H1396       H  0.31084384  0.76474580  0.63226198     0.07900
H1397       H  0.33544276  0.79221632  0.66210440     0.07900
H1398       H  0.35433243  0.77835581  0.62144310     0.04700
C1399       C  0.11445859  0.73628573  0.56047324    -0.21100
C1400       C  0.14043215  0.72657265  0.53647681    -0.07700
C1401       C  0.17564375  0.73597300  0.54347305     0.13200
C1402       C  0.18368120  0.75381710  0.57468418    -0.21200
C1403       C  0.15754009  0.76261909  0.59876978    -0.07700
C1404       C  0.12233708  0.75421146  0.59121473     0.13200
C1405       C  0.09250902  0.76495443  0.61484012    -0.24500
H1406       H  0.08735806  0.73016036  0.55502186     0.14500
H1407       H  0.21059660  0.76031385  0.58069264     0.14500
C1408       C  0.20500507  0.72673607  0.51891232    -0.24500
H1409       H  0.06670232  0.75925339  0.60290614     0.04700
H1410       H  0.09357036  0.75052138  0.63994186     0.07900
H1411       H  0.09372168  0.79339592  0.61990354     0.07900
H1412       H  0.20182622  0.74077595  0.49375458     0.07900
H1413       H  0.20530763  0.69822028  0.51421776     0.07900
H1414       H  0.23082169  0.73424548  0.52977810     0.04700
C1415       C  0.09642737  0.78625734  0.83856053    -0.21100
C1416       C  0.10427844  0.77221077  0.80560828    -0.07700
C1417       C  0.08524060  0.74254616  0.79354636     0.13200
C1418       C  0.05959551  0.72803128  0.81497549    -0.21200
C1419       C  0.05204848  0.74195930  0.84779175    -0.07700
C1420       C  0.07029599  0.77160176  0.85972485     0.13200
C1421       C  0.06278395  0.78833112  0.89450893    -0.24500
H1422       H  0.11120689  0.80835570  0.84822876     0.14500
H1423       H  0.04458715  0.70587516  0.80571921     0.14500
C1424       C  0.09117366  0.72555313  0.75823035    -0.24500
H1425       H  0.08690440  0.78861632  0.91055435     0.04700
H1426       H  0.04230661  0.77441159  0.90950163     0.07900
H1427       H  0.05405283  0.81555919  0.89031126     0.07900
H1428       H  0.11688317  0.71226637  0.75759915     0.07900
H1429       H  0.08963816  0.74524648  0.73709190     0.07900
H1430       H  0.07130369  0.70529631  0.75243417     0.04700
C1431       C  0.01515548  0.86193738  0.69185185    -0.21100
C1432       C  0.01585433  0.88959597  0.66773072    -0.07700
C1433       C  0.04863496  0.90213098  0.65591974     0.13200
C1434       C  0.07901538  0.88522489  0.66644139    -0.21200
C1435       C  0.07828064  0.85542319  0.68768412    -0.07700
C1436       C  0.04582005  0.84454486  0.70195320     0.13200
C1437       C  0.04268595  0.81444545  0.72709889    -0.24500
H1438       H  0.99028141  0.85267857  0.70167452     0.14500
H1439       H  0.10368648  0.89488174  0.65652138     0.14500
C1440       C  0.05262280  0.93299462  0.63180753    -0.24500
H1441       H  0.01544452  0.81081840  0.73641406     0.04700
H1442       H  0.05924474  0.81918205  0.75045814     0.07900
H1443       H  0.05062564  0.78995854  0.71393965     0.07900
H1444       H  0.03816435  0.95565445  0.64250955     0.07900
H1445       H  0.04308153  0.92643761  0.60522721     0.07900
H1446       H  0.08035822  0.94079071  0.62867996     0.04700
C1447       C  0.32733268  0.98733238  0.82212140    -0.21100
C1448       C  0.30135643  0.01216309  0.82908745    -0.07700
C1449       C  0.26661100  0.00527087  0.81802141     0.13200
C1450       C  0.25915720  0.97382733  0.80054581    -0.21200
C1451       C  0.28535175  0.94921281  0.79399205    -0.07700
C1452       C  0.32001413  0.95625029  0.80475205     0.13200
C1453       C  0.35002131  0.93186677  0.79688599    -0.24500
H1454       H  0.35410872  0.99245700  0.82972812     0.14500
H1455       H  0.23264481  0.96818116  0.79234797     0.14500
C1456       C  0.23707221  0.03021150  0.82502711    -0.24500
H1457       H  0.37559766  0.94330594  0.80431857     0.04700
H1458       H  0.35094780  0.92609023  0.76841969     0.07900
H1459       H  0.34718408  0.90733780  0.81190340     0.07900
H1460       H  0.24112233  0.05470229  0.81020519     0.07900
H1461       H  0.23543020  0.03586825  0.85347614     0.07900
H1462       H  0.21154276  0.01930353  0.81666885     0.04700
C1463       C  0.15383468  0.97329038  0.67828774    -0.21100
C1464       C  0.11985468  0.97873344  0.69013738    -0.07700
C1465       C  0.10609298  0.95703882  0.71656981     0.13200
C1466       C  0.12668737  0.92952500  0.72985351    -0.21200
C1467       C  0.16075648  0.92341041  0.71724551    -0.07700
C1468       C  0.17448845  0.94619390  0.69122928     0.13200
C1469       C  0.21111482  0.94305213  0.67693045    -0.24500
H1470       H  0.16442812  0.99077886  0.65869173     0.14500
H1471       H  0.11578646  0.91221161  0.74937229     0.14500
C1472       C  0.06980478  0.96279924  0.73047138    -0.24500
H1473       H  0.21762892  0.96459196  0.65867373     0.04700
H1474       H  0.21415631  0.91852181  0.66195976     0.07900
H1475       H  0.23019136  0.94422533  0.69859689     0.07900
H1476       H  0.05062725  0.96068170  0.70883574     0.07900
H1477       H  0.06793964  0.98913573  0.74229632     0.07900
H1478       H  0.06282439  0.94330664  0.75076456     0.04700
C1479       C  0.24466536  0.90640823  0.91174055    -0.21100
C1480       C  0.28125866  0.90765608  0.91549313    -0.07700
C1481       C  0.30239267  0.88990450  0.89107519     0.13200
C1482       C  0.28648002  0.87051908  0.86466552    -0.21200
C1483       C  0.24991468  0.86872038  0.86087811    -0.07700
C1484       C  0.22869338  0.88745353  0.88450836     0.13200
C1485       C  0.18949023  0.88640585  0.88216752    -0.24500
H1486       H  0.22845349  0.91968861  0.93081345     0.14500
H1487       H  0.30318013  0.85628302  0.84682226     0.14500
C1488       C  0.34172071  0.88944409  0.89351116    -0.24500
H1489       H  0.18086231  0.89785893  0.85696377     0.04700
H1490       H  0.17705179  0.90149262  0.90361766     0.07900
H1491       H  0.18024613  0.85906381  0.88404579     0.07900
H1492       H  0.34991248  0.87895458  0.91929143     0.07900
H1493       H  0.35212191  0.91617977  0.88997866     0.07900
H1494       H  0.35373923  0.87283853  0.87296271     0.04700
C1495       C  0.16924902  0.76630647  0.91334168    -0.21100
C1496       C  0.16644658  0.74282750  0.88532125    -0.07700
C1497       C  0.14289607  0.71435259  0.88804490     0.13200
C1498       C  0.12350400  0.71022028  0.91855405    -0.21200
C1499       C  0.12801459  0.73204053  0.94763763    -0.07700
C1500       C  0.15073639  0.76122552  0.94463759     0.13200
C1501       C  0.15635605  0.78716354  0.97379543    -0.24500
H1502       H  0.18659457  0.78843895  0.91107188     0.14500
H1503       H  0.10562900  0.68848102  0.92002235     0.14500
C1504       C  0.13846608  0.68682967  0.86001539    -0.24500
H1505       H  0.17358368  0.80896573  0.96562056     0.04700
H1506       H  0.16916488  0.77437341  0.99642872     0.07900
H1507       H  0.13098293  0.79863300  0.98181728     0.07900
H1508       H  0.16394420  0.67430101  0.85428019     0.07900
H1509       H  0.12742283  0.69847784  0.83593827     0.07900
H1510       H  0.12027754  0.66580141  0.86808706     0.04700
C1511       C  0.76600552  0.48103203  0.65914178    -0.21100
C1512       C  0.80058594  0.48429886  0.64691056    -0.07700
C1513       C  0.82583806  0.45942591  0.65719676     0.13200
C1514       C  0.81603479  0.43333122  0.68034149    -0.21200
C1515       C  0.78214551  0.43128398  0.69420395    -0.07700
C1516       C  0.75658444  0.45517967  0.68320658     0.13200
C1517       C  0.71965858  0.45369562  0.69666520    -0.24500
H1518       H  0.74663484  0.50005511  0.65127800     0.14500
H1519       H  0.83554247  0.41453509  0.68829473     0.14500
C1520       C  0.86368069  0.46067794  0.64600481    -0.24500
H1521       H  0.70274410  0.47340759  0.68388642     0.04700
H1522       H  0.71930668  0.45879092  0.72525905     0.07900
H1523       H  0.70842244  0.42761489  0.69151548     0.07900
H1524       H  0.87612199  0.48493789  0.65567909     0.07900
H1525       H  0.86558712  0.45906633  0.61706501     0.07900
H1526       H  0.87902934  0.43864530  0.65680736     0.04700
C1527       C  0.66872428  0.43011657  0.81863682    -0.21100
C1528       C  0.66066509  0.41832258  0.78449232    -0.07700
C1529       C  0.63634781  0.43849251  0.76501297     0.13200
C1530       C  0.62259038  0.46993400  0.77934824    -0.21200
C1531       C  0.63100810  0.48136904  0.81344493    -0.07700
C1532       C  0.65399844  0.46052528  0.83334044     0.13200
C1533       C  0.66401133  0.47078142  0.87005922    -0.24500
H1534       H  0.68681788  0.41525994  0.83443484     0.14500
H1535       H  0.60485136  0.48557820  0.76390161     0.14500
C1536       C  0.62448971  0.42709716  0.72928322    -0.24500
H1537       H  0.68313552  0.45238278  0.88162436     0.04700
H1538       H  0.64051680  0.47082704  0.88707207     0.07900
H1539       H  0.67595319  0.49712128  0.86997354     0.07900
H1540       H  0.61182558  0.40115415  0.73106667     0.07900
H1541       H  0.64710683  0.42568594  0.71122036     0.07900
H1542       H  0.60524931  0.44551395  0.71794847     0.04700
C1543       C  0.56388556  0.36553383  0.78756606    -0.21100
C1544       C  0.58758256  0.36072415  0.81511155    -0.07700
C1545       C  0.58673173  0.38402099  0.84415257     0.13200
C1546       C  0.56170406  0.41016158  0.84502723    -0.21200
C1547       C  0.53502150  0.41169643  0.82010968    -0.07700
C1548       C  0.53789833  0.39113701  0.78942451     0.13200
C1549       C  0.51435648  0.39566544  0.75819736    -0.24500
H1550       H  0.56569576  0.34939629  0.76433211     0.14500
H1551       H  0.56093226  0.42710295  0.86768171     0.14500
C1552       C  0.60997468  0.38059699  0.87604737    -0.24500
H1553       H  0.53050109  0.39877038  0.73423619     0.04700
H1554       H  0.49786588  0.41928271  0.76021230     0.07900
H1555       H  0.49747468  0.37235987  0.75513270     0.07900
H1556       H  0.63744693  0.38673201  0.86941931     0.07900
H1557       H  0.60795770  0.35386153  0.88689668     0.07900
H1558       H  0.60245958  0.39885559  0.89730899     0.04700
C1559       C  0.58346208  0.23537392  0.70229211    -0.21100
C1560       C  0.59311873  0.27050973  0.69687795    -0.07700
C1561       C  0.57046897  0.29100877  0.67593810     0.13200
C1562       C  0.53980788  0.27584391  0.66109816    -0.21200
C1563       C  0.53115733  0.24035137  0.66595613    -0.07700
C1564       C  0.55343780  0.22023076  0.68737130     0.13200
C1565       C  0.54522646  0.18271830  0.69564051    -0.24500
H1566       H  0.59995307  0.21897474  0.71821736     0.14500
H1567       H  0.52268946  0.29174375  0.64519172     0.14500
C1568       C  0.57819113  0.32883207  0.66946621    -0.24500
H1569       H  0.56411955  0.17143035  0.71451462     0.04700
H1570       H  0.54642133  0.16678998  0.67145711     0.07900
H1571       H  0.51878304  0.18076552  0.70740401     0.07900
H1572       H  0.60341462  0.33145584  0.65538745     0.07900
H1573       H  0.57960435  0.34296169  0.69478927     0.07900
H1574       H  0.55763398  0.34127752  0.65328052     0.04700
C1575       C  0.62637692  0.23243234  0.61086091    -0.21100
C1576       C  0.65945082  0.24819020  0.60999007    -0.07700
C1577       C  0.67222752  0.26115121  0.57759940     0.13200
C1578       C  0.65282506  0.25527412  0.54709323    -0.21200
C1579       C  0.62150486  0.23625928  0.54771682    -0.07700
C1580       C  0.60737973  0.22598895  0.58038480     0.13200
C1581       C  0.57268531  0.20769301  0.58392361    -0.24500
H1582       H  0.61574312  0.22351983  0.63552710     0.14500
H1583       H  0.66350896  0.26372981  0.52224372     0.14500
C1584       C  0.70670627  0.27989831  0.57410806    -0.24500
H1585       H  0.56507048  0.20486379  0.61171438     0.04700
H1586       H  0.57411958  0.18087517  0.57334209     0.07900
H1587       H  0.55197830  0.22277863  0.57044057     0.07900
H1588       H  0.72838217  0.26247446  0.58209147     0.07900
H1589       H  0.70662813  0.30376025  0.59047697     0.07900
H1590       H  0.71194475  0.28812587  0.54673418     0.04700
C1591       C  0.75617859  0.40028552  0.58817354    -0.21100
C1592       C  0.79270496  0.39613146  0.58459264    -0.07700
C1593       C  0.81009473  0.37415623  0.60828782     0.13200
C1594       C  0.79085308  0.35642547  0.63392060    -0.21200
C1595       C  0.75420229  0.35978934  0.63753032    -0.07700
C1596       C  0.73677120  0.38263452  0.61439912     0.13200
C1597       C  0.69778689  0.38711216  0.61589488    -0.24500
H1598       H  0.74254883  0.41644478  0.56940461     0.14500
H1599       H  0.80504369  0.33914234  0.65120073     0.14500
C1600       C  0.84875861  0.36735625  0.60535213    -0.24500
H1601       H  0.68834737  0.40518601  0.59530981     0.04700
H1602       H  0.68994868  0.39791155  0.64160586     0.07900
H1603       H  0.68477334  0.36159079  0.61198340     0.07900
H1604       H  0.86341338  0.39197507  0.60899202     0.07900
H1605       H  0.85490092  0.35622769  0.57924005     0.07900
H1606       H  0.85801323  0.34867673  0.62547805     0.04700
C1607       C  0.78360394  0.14560280  0.71288033    -0.21100
C1608       C  0.75592284  0.15384000  0.69045169    -0.07700
C1609       C  0.75234834  0.13699529  0.65796468     0.13200
C1610       C  0.77743245  0.11274335  0.64795110    -0.21200
C1611       C  0.80588357  0.10543912  0.66968921    -0.07700
C1612       C  0.80878802  0.12122163  0.70280771     0.13200
C1613       C  0.83917251  0.11363196  0.72655019    -0.24500
H1614       H  0.78664128  0.15979974  0.73721095     0.14500
H1615       H  0.77496598  0.09950149  0.62301256     0.14500
C1616       C  0.72263453  0.14546992  0.63353140    -0.24500
H1617       H  0.83788663  0.12918937  0.75102541     0.04700
H1618       H  0.86396637  0.12006298  0.71292709     0.07900
H1619       H  0.83925344  0.08569967  0.73381557     0.07900
H1620       H  0.72387390  0.17323515  0.62558370     0.07900
H1621       H  0.69738758  0.14052088  0.64693345     0.07900
H1622       H  0.72350118  0.12933953  0.60941664     0.04700
C1623       C  0.70771919  0.15541642  0.83001302    -0.21100
C1624       C  0.68485482  0.17513715  0.80885078    -0.07700
C1625       C  0.65055598  0.16136557  0.80322959     0.13200
C1626       C  0.64067017  0.12950863  0.81839498    -0.21200
C1627       C  0.66333451  0.11002103  0.83921777    -0.07700
C1628       C  0.69736224  0.12318073  0.84518465     0.13200
C1629       C  0.72227518  0.10383287  0.86850104    -0.24500
H1630       H  0.73371476  0.16531598  0.83496047     0.14500
H1631       H  0.61455082  0.11952354  0.81395199     0.14500
C1632       C  0.62340650  0.17957951  0.78129870    -0.24500
H1633       H  0.74749512  0.11783089  0.87122045     0.04700
H1634       H  0.72766593  0.07768164  0.85738630     0.07900
H1635       H  0.71064458  0.10087689  0.89496851     0.07900
H1636       H  0.61739724  0.20554078  0.79253983     0.07900
H1637       H  0.59840671  0.16496233  0.78016669     0.07900
H1638       H  0.63303104  0.18199213  0.75402856     0.04700
C1639       C  0.90237347  0.39751638  0.81485888    -0.21100
C1640       C  0.91091383  0.37691326  0.84374609    -0.07700
C1641       C  0.89580906  0.34364673  0.84779356     0.13200
C1642       C  0.87103630  0.33239101  0.82329953    -0.21200
C1643       C  0.86200685  0.35354258  0.79488023    -0.07700
C1644       C  0.87821531  0.38614146  0.79022097     0.13200
C1645       C  0.86990940  0.40898834  0.75923649    -0.24500
H1646       H  0.91529330  0.42239412  0.81116418     0.14500
H1647       H  0.85746634  0.30792759  0.82724226     0.14500
C1648       C  0.90487834  0.32075685  0.87841866    -0.24500
H1649       H  0.88600547  0.43304117  0.75902135     0.04700
H1650       H  0.84210202  0.41698309  0.75982376     0.07900
H1651       H  0.87526019  0.39445692  0.73469812     0.07900
H1652       H  0.89911684  0.33469795  0.90321935     0.07900
H1653       H  0.93299687  0.31390674  0.87760221     0.07900
H1654       H  0.88959618  0.29617150  0.87818975     0.04700
C1655       C  0.89961377  0.22084736  0.72247081    -0.21100
C1656       C  0.90120007  0.20933080  0.68725237    -0.07700
C1657       C  0.86894966  0.20792729  0.66874717     0.13200
C1658       C  0.83782347  0.21989082  0.68475624    -0.21200
C1659       C  0.83639310  0.23233487  0.71945015    -0.07700
C1660       C  0.86809788  0.23206648  0.73872633     0.13200
C1661       C  0.87048530  0.24502001  0.77585955    -0.24500
H1662       H  0.92351690  0.22180256  0.73762255     0.14500
H1663       H  0.81417553  0.22034577  0.66933636     0.14500
C1664       C  0.86658531  0.19487108  0.63160490    -0.24500
H1665       H  0.88922744  0.26704009  0.77715154     0.04700
H1666       H  0.88004015  0.22371823  0.79297217     0.07900
H1667       H  0.84533927  0.25423772  0.78653726     0.07900
H1668       H  0.87476354  0.16717939  0.63041884     0.07900
H1669       H  0.88325035  0.21099825  0.61422110     0.07900
H1670       H  0.83951420  0.19615675  0.62129714     0.04700
C1671       C  0.81893968  0.33205039  0.91805387    -0.21100
C1672       C  0.82199280  0.36880652  0.91721917    -0.07700
C1673       C  0.80996279  0.38653171  0.88729849     0.13200
C1674       C  0.79234501  0.36789775  0.86122965    -0.21200
C1675       C  0.78823307  0.33131598  0.86211775    -0.07700
C1676       C  0.80296273  0.31307923  0.89052354     0.13200
C1677       C  0.80049221  0.27408784  0.89274474    -0.24500
H1678       H  0.82830228  0.31817051  0.94083220     0.14500
H1679       H  0.78053858  0.38269487  0.84035738     0.14500
C1680       C  0.81359617  0.42542490  0.88320070    -0.24500
H1681       H  0.81263204  0.26402484  0.91709230     0.04700
H1682       H  0.81427372  0.26224228  0.87011050     0.07900
H1683       H  0.77271969  0.26586395  0.89244110     0.07900
H1684       H  0.84166603  0.43263395  0.88307349     0.07900
H1685       H  0.79990446  0.43900191  0.90488026     0.07900
H1686       H  0.80222382  0.43482589  0.85821297     0.04700
C1687       C  0.67559080  0.23654305  0.95812852    -0.21100
C1688       C  0.65893519  0.20397426  0.95527868    -0.07700
C1689       C  0.65032312  0.19109776  0.92174653     0.13200
C1690       C  0.65639425  0.21202604  0.89247408    -0.21200
C1691       C  0.67070343  0.24561008  0.89541375    -0.07700
C1692       C  0.68145569  0.25764219  0.92871525     0.13200
C1693       C  0.69727553  0.29321184  0.93404249    -0.24500
H1694       H  0.68232799  0.24654047  0.98375066     0.14500
H1695       H  0.64875987  0.20234352  0.86702947     0.14500
C1696       C  0.63461305  0.15549249  0.91620660    -0.24500
H1697       H  0.70280996  0.29853504  0.96206795     0.04700
H1698       H  0.67898989  0.31355538  0.92461207     0.07900
H1699       H  0.72237238  0.29518453  0.91969074     0.07900
H1700       H  0.60788481  0.15409494  0.92717454     0.07900
H1701       H  0.65149591  0.13528726  0.92821062     0.07900
H1702       H  0.63184693  0.14948430  0.88806936     0.04700
C1703       C  0.64115253  0.44605509  0.16791425    -0.21100
C1704       C  0.66775377  0.44697468  0.19318842    -0.07700
C1705       C  0.67430382  0.47875658  0.21090427     0.13200
C1706       C  0.65606376  0.50882542  0.20065533    -0.21200
C1707       C  0.63161518  0.50828973  0.17313789    -0.07700
C1708       C  0.62340150  0.47587170  0.15730399     0.13200
C1709       C  0.59652705  0.47171523  0.12870840    -0.24500
H1710       H  0.63480656  0.42172296  0.15494724     0.14500
H1711       H  0.66207647  0.53329837  0.21353189     0.14500
C1712       C  0.70043516  0.48165290  0.24027175    -0.24500
H1713       H  0.57142227  0.48341385  0.13711791     0.04700
H1714       H  0.59142760  0.44394957  0.12236920     0.07900
H1715       H  0.60589587  0.48407956  0.10420633     0.07900
H1716       H  0.69357507  0.46311550  0.26148155     0.07900
H1717       H  0.70086488  0.50818697  0.25184766     0.07900
H1718       H  0.72711797  0.47614940  0.23040361     0.04700
C1719       C  0.77346236  0.44186191  0.29746277    -0.21100
C1720       C  0.74615903  0.42220506  0.31221063    -0.07700
C1721       C  0.73316820  0.43179606  0.34561265     0.13200
C1722       C  0.74873978  0.45997441  0.36360145    -0.21200
C1723       C  0.77695951  0.47831111  0.34900063    -0.07700
C1724       C  0.78892675  0.46953183  0.31531980     0.13200
C1725       C  0.81802564  0.48962256  0.29794965    -0.24500
H1726       H  0.78328464  0.43524074  0.27166368     0.14500
H1727       H  0.73905022  0.46760129  0.38914818     0.14500
C1728       C  0.70372683  0.41213989  0.36269061    -0.24500
H1729       H  0.82418981  0.47928862  0.27149957     0.04700
H1730       H  0.84204644  0.48795606  0.31407318     0.07900
H1731       H  0.81037759  0.51734104  0.29504423     0.07900
H1732       H  0.71107571  0.38440649  0.36608718     0.07900
H1733       H  0.67995381  0.41389771  0.34620523     0.07900
H1734       H  0.69731281  0.42289866  0.38890487     0.04700
C1735       C  0.79668029  0.38491221  0.39372056    -0.21100
C1736       C  0.77813565  0.35335850  0.39480080    -0.07700
C1737       C  0.76666185  0.34068273  0.42772882     0.13200
C1738       C  0.77662146  0.35847719  0.45834867    -0.21200
C1739       C  0.79807630  0.38820079  0.45704500    -0.07700
C1740       C  0.80736175  0.40205542  0.42401140     0.13200
C1741       C  0.82896597  0.43461022  0.41972444    -0.24500
H1742       H  0.80437979  0.39585937  0.36874832     0.14500
H1743       H  0.76895414  0.34804761  0.48355565     0.14500
C1744       C  0.74470586  0.30828734  0.43126931    -0.24500
H1745       H  0.83123060  0.44221559  0.39183692     0.04700
H1746       H  0.85606902  0.43019096  0.42877895     0.07900
H1747       H  0.81680775  0.45646323  0.43433520     0.07900
H1748       H  0.75928879  0.28537754  0.42129080     0.07900
H1749       H  0.71996568  0.31146050  0.41649176     0.07900
H1750       H  0.73775341  0.30290274  0.45897316     0.04700
C1751       C  0.67038331  0.23677500  0.37691145    -0.21100
C1752       C  0.66156063  0.27056243  0.36546239    -0.07700
C1753       C  0.63363326  0.28819424  0.38208232     0.13200
C1754       C  0.61596422  0.27180123  0.40986834    -0.21200
C1755       C  0.62486991  0.23805180  0.42061984    -0.07700
C1756       C  0.65232655  0.22029519  0.40393702     0.13200
C1757       C  0.66355290  0.18438640  0.41533429    -0.24500
H1758       H  0.69160397  0.22275399  0.36452879     0.14500
H1759       H  0.59517570  0.28537947  0.42342189     0.14500
C1760       C  0.62219007  0.32398000  0.37090938    -0.24500
H1761       H  0.68625767  0.17480587  0.40000478     0.04700
H1762       H  0.64186076  0.16562763  0.41157043     0.07900
H1763       H  0.67114086  0.18482785  0.44336525     0.07900
H1764       H  0.61329962  0.32329815  0.34326780     0.07900
H1765       H  0.64417079  0.34261522  0.37374471     0.07900
H1766       H  0.60013933  0.33369149  0.38707489     0.04700
C1767       C  0.68507323  0.13294591  0.19738905    -0.21100
C1768       C  0.65942779  0.15816071  0.20366168    -0.07700
C1769       C  0.62427462  0.15106663  0.19465413     0.13200
C1770       C  0.61602059  0.11959481  0.17847127    -0.21200
C1771       C  0.64164415  0.09465372  0.17071407    -0.07700
C1772       C  0.67673624  0.10123476  0.18086192     0.13200
C1773       C  0.70588642  0.07598326  0.17333714    -0.24500
H1774       H  0.71183371  0.13851462  0.20454769     0.14500
H1775       H  0.58901348  0.11453720  0.17188609     0.14500
C1776       C  0.59478988  0.17596917  0.20287615    -0.24500
H1777       H  0.73168484  0.08663787  0.18114085     0.04700
H1778       H  0.70695271  0.07028341  0.14486416     0.07900
H1779       H  0.70183009  0.05156205  0.18828985     0.07900
H1780       H  0.56884535  0.16445228  0.19702739     0.07900
H1781       H  0.59513421  0.18282317  0.23111250     0.07900
H1782       H  0.59713310  0.19988376  0.18679052     0.04700
C1783       C  0.83480063  0.14911673  0.27927374    -0.21100
C1784       C  0.82035266  0.13219002  0.30840262    -0.07700
C1785       C  0.78789012  0.14286149  0.32175339     0.13200
C1786       C  0.77049700  0.17040043  0.30581291    -0.21200
C1787       C  0.78480515  0.18823780  0.27695853    -0.07700
C1788       C  0.81750975  0.17742510  0.26348091     0.13200
C1789       C  0.83462758  0.19586225  0.23327074    -0.24500
H1790       H  0.85951950  0.14011049  0.26890142     0.14500
H1791       H  0.74543173  0.17822244  0.31638849     0.14500
C1792       C  0.77127290  0.12487853  0.35271134    -0.24500
H1793       H  0.81775266  0.19413043  0.20973947     0.04700
H1794       H  0.86031302  0.18419733  0.22663265     0.07900
H1795       H  0.83902490  0.22358236  0.24015503     0.07900
H1796       H  0.78876273  0.12680633  0.37577601     0.07900
H1797       H  0.76662692  0.09702466  0.34650674     0.07900
H1798       H  0.74580959  0.13674251  0.35987445     0.04700
C1799       C  0.77427527  0.34378630  0.08287931    -0.21100
C1800       C  0.76953053  0.37046385  0.10754264    -0.07700
C1801       C  0.78197710  0.40430981  0.10011623     0.13200
C1802       C  0.79948394  0.41031044  0.06872063    -0.21200
C1803       C  0.80466520  0.38379296  0.04383458    -0.07700
C1804       C  0.79156665  0.34995198  0.05098942     0.13200
C1805       C  0.79592599  0.32001513  0.02584137    -0.24500
H1806       H  0.76470828  0.31790910  0.08875795     0.14500
H1807       H  0.80858944  0.43641896  0.06348080     0.14500
C1808       C  0.77588043  0.43490599  0.12429992    -0.24500
H1809       H  0.78572675  0.29527235  0.03688190     0.04700
H1810       H  0.82401572  0.31617044  0.01982179     0.07900
H1811       H  0.78120945  0.32519306  0.00139928     0.07900
H1812       H  0.79074266  0.43153016  0.14894430     0.07900
H1813       H  0.74758226  0.43745899  0.13012570     0.07900
H1814       H  0.78471376  0.45982622  0.11254791     0.04700
C1815       C  0.65815147  0.23808546  0.08049636    -0.21100
C1816       C  0.66200755  0.20196044  0.08053054    -0.07700
C1817       C  0.68396189  0.18610707  0.10540302     0.13200
C1818       C  0.70029828  0.20698670  0.13104833    -0.21200
C1819       C  0.69588476  0.24340861  0.13124428    -0.07700
C1820       C  0.67544850  0.25906004  0.10467106     0.13200
C1821       C  0.67346631  0.29792402  0.09970775    -0.24500
H1822       H  0.64270111  0.25015227  0.06004655     0.14500
H1823       H  0.71577148  0.19484795  0.15134853     0.14500
C1824       C  0.69048550  0.14755393  0.10430808    -0.24500
H1825       H  0.69988999  0.30786906  0.09361212     0.04700
H1826       H  0.66273940  0.31103184  0.12311821     0.07900
H1827       H  0.65644343  0.30515411  0.07735543     0.07900
H1828       H  0.70185121  0.14025239  0.07859696     0.07900
H1829       H  0.66550602  0.13337286  0.10802723     0.07900
H1830       H  0.70908057  0.13940622  0.12496454     0.04700
C1831       C  0.01735936  0.36067698  0.19825571    -0.21100
C1832       C  0.01996379  0.37409955  0.16407395    -0.07700
C1833       C  0.05301070  0.37617240  0.14791626     0.13200
C1834       C  0.08268349  0.36801719  0.16743093    -0.21200
C1835       C  0.08045926  0.35746066  0.20254961    -0.07700
C1836       C  0.04721047  0.35212361  0.21772611     0.13200
C1837       C  0.04286447  0.33910376  0.25469794    -0.24500
H1838       H  0.99188871  0.35829190  0.21042473     0.14500
H1839       H  0.10808513  0.37101723  0.15535070     0.14500
C1840       C  0.05736038  0.38652005  0.11009683    -0.24500
H1841       H  0.01494259  0.33750027  0.26239718     0.04700
H1842       H  0.05614528  0.35699866  0.27322847     0.07900
H1843       H  0.05407710  0.31258143  0.25711406     0.07900
H1844       H  0.05051580  0.41428350  0.10630739     0.07900
H1845       H  0.04076041  0.36980945  0.09321673     0.07900
H1846       H  0.08470352  0.38341455  0.10134488     0.04700
C1847       C  0.84028964  0.37608660  0.18635661    -0.21100
C1848       C  0.83677433  0.33960853  0.18805189    -0.07700
C1849       C  0.86174301  0.31846950  0.17106526     0.13200
C1850       C  0.89016787  0.33445938  0.15419843    -0.21200
C1851       C  0.89370891  0.37090672  0.15321989    -0.07700
C1852       C  0.86810645  0.39198395  0.16907164     0.13200
C1853       C  0.87086534  0.43117429  0.16983523    -0.24500
H1854       H  0.82130838  0.39262639  0.19925788     0.14500
H1855       H  0.91024005  0.31843346  0.14235963     0.14500
C1856       C  0.85942611  0.27933350  0.17159173    -0.24500
H1857       H  0.84927032  0.44326323  0.18497955     0.04700
H1858       H  0.86956165  0.44160696  0.14279528     0.07900
H1859       H  0.89580742  0.43910840  0.18228522     0.07900
H1860       H  0.83536963  0.27074326  0.15792696     0.07900
H1861       H  0.85896920  0.26981616  0.19897559     0.07900
H1862       H  0.88203986  0.26708670  0.15819191     0.04700
C1863       C  0.05490913  0.21677918  0.27775222    -0.21100
C1864       C  0.05671918  0.20976971  0.31417906    -0.07700
C1865       C  0.08882095  0.21552734  0.33136190     0.13200
C1866       C  0.11660309  0.23023492  0.31274365    -0.21200
C1867       C  0.11473046  0.23850808  0.27680554    -0.07700
C1868       C  0.08352690  0.23084180  0.25888371     0.13200
C1869       C  0.07960330  0.23940551  0.22068835    -0.24500
H1870       H  0.03052717  0.21232731  0.26411438     0.14500
H1871       H  0.13966968  0.23719113  0.32740511     0.14500
C1872       C  0.09392630  0.20849034  0.36986992    -0.24500
H1873       H  0.05321437  0.23256062  0.21084252     0.04700
H1874       H  0.09913467  0.22457327  0.20523917     0.07900
H1875       H  0.08370969  0.26770892  0.21647437     0.07900
H1876       H  0.09026420  0.18032886  0.37522314     0.07900
H1877       H  0.07522259  0.22416127  0.38551150     0.07900
H1878       H  0.12061515  0.21544490  0.37882181     0.04700
C1879       C  0.86636686  0.22875163  0.32794896    -0.21100
C1880       C  0.86713076  0.25917228  0.30751418    -0.07700
C1881       C  0.89973894  0.27099829  0.29445676     0.13200
C1882       C  0.93039414  0.25330641  0.30419058    -0.21200
C1883       C  0.92950521  0.22452374  0.32695327    -0.07700
C1884       C  0.89668835  0.21164323  0.33826994     0.13200
C1885       C  0.89257365  0.17998307  0.36139583    -0.24500
H1886       H  0.84167351  0.21852240  0.33717826     0.14500
H1887       H  0.95534997  0.26294163  0.29502152     0.14500
C1888       C  0.90297303  0.30232497  0.27090960    -0.24500
H1889       H  0.86479987  0.17231242  0.36455930     0.04700
H1890       H  0.90247350  0.18554402  0.38808542     0.07900
H1891       H  0.90657916  0.15747769  0.34977488     0.07900
H1892       H  0.89386105  0.32600290  0.28482652     0.07900
H1893       H  0.88733721  0.29834049  0.24685182     0.07900
H1894       H  0.93040580  0.30697762  0.26270489     0.04700
C1895       C  0.36304118  0.81771222  0.32438955    -0.21100
C1896       C  0.34340863  0.84053176  0.30314144    -0.07700
C1897       C  0.35703705  0.87491419  0.29809563     0.13200
C1898       C  0.38853541  0.88502116  0.31411198    -0.21200
C1899       C  0.40794853  0.86241878  0.33507300    -0.07700
C1900       C  0.39509120  0.82813482  0.34010058     0.13200
C1901       C  0.41468477  0.80281015  0.36274157    -0.24500
H1902       H  0.35339778  0.79156071  0.32867112     0.14500
H1903       H  0.39840468  0.91115927  0.31003528     0.14500
C1904       C  0.33896432  0.90199663  0.27599308    -0.24500
H1905       H  0.40086311  0.77747137  0.36476470     0.04700
H1906       H  0.41754682  0.81369238  0.38951371     0.07900
H1907       H  0.44093984  0.79789849  0.35148358     0.07900
H1908       H  0.31261084  0.90751829  0.28670188     0.07900
H1909       H  0.33724192  0.89282314  0.24850216     0.07900
H1910       H  0.35332226  0.92711398  0.27553773     0.04700
C1911       C  0.35334882  0.72543407  0.17041986    -0.21100
C1912       C  0.35922192  0.75564400  0.19038523    -0.07700
C1913       C  0.39182056  0.76039877  0.20687418     0.13200
C1914       C  0.41849378  0.73640058  0.20004815    -0.21200
C1915       C  0.41344225  0.70844137  0.17669061    -0.07700
C1916       C  0.37984106  0.70212578  0.16285211     0.13200
C1917       C  0.37128002  0.67200753  0.13883092    -0.24500
H1918       H  0.32790277  0.72044688  0.15914003     0.14500
H1919       H  0.44400975  0.74093586  0.21131089     0.14500
C1920       C  0.39931543  0.79095327  0.23046217    -0.24500
H1921       H  0.34269777  0.66848076  0.13557449     0.04700
H1922       H  0.38196091  0.64747888  0.14963315     0.07900
H1923       H  0.38205265  0.67676884  0.11230545     0.07900
H1924       H  0.38132942  0.79045447  0.25323328     0.07900
H1925       H  0.39605996  0.81567149  0.21579665     0.07900
H1926       H  0.42640438  0.79032490  0.24076186     0.04700
C1927       C  0.14967325  0.73643899  0.35438918    -0.21100
C1928       C  0.18637263  0.74005344  0.35417143    -0.07700
C1929       C  0.20550153  0.72487061  0.38174324     0.13200
C1930       C  0.18731483  0.70875958  0.40960684    -0.21200
C1931       C  0.15046922  0.70667754  0.41024638    -0.07700
C1932       C  0.13164696  0.71959459  0.38136756     0.13200
C1933       C  0.09234331  0.71796088  0.37957468    -0.24500
H1934       H  0.13441592  0.74807075  0.33368817     0.14500
H1935       H  0.20190543  0.69882039  0.43172384     0.14500
C1936       C  0.24466537  0.72712853  0.38288495    -0.24500
H1937       H  0.08205299  0.73024775  0.35538752     0.04700
H1938       H  0.08076108  0.73188562  0.40224955     0.07900
H1939       H  0.08369166  0.69038089  0.37952383     0.07900
H1940       H  0.25292549  0.75484133  0.38301540     0.07900
H1941       H  0.25589756  0.71380185  0.35967933     0.07900
H1942       H  0.25539775  0.71446955  0.40667023     0.04700
C1943       C  0.30442087  0.87408871  0.38439685    -0.21100
C1944       C  0.27042344  0.86061572  0.38705068    -0.07700
C1945       C  0.25674573  0.85264756  0.42050769     0.13200
C1946       C  0.27745806  0.85871705  0.45017598    -0.21200
C1947       C  0.31106223  0.87328550  0.44737431    -0.07700
C1948       C  0.32474629  0.88089579  0.41390688     0.13200
C1949       C  0.36062233  0.89628281  0.40868348    -0.24500
H1950       H  0.31500187  0.88027951  0.35891558     0.14500
H1951       H  0.26665669  0.85345954  0.47585652     0.14500
C1952       C  0.21996155  0.83954444  0.42550907    -0.24500
H1953       H  0.36716389  0.89871781  0.38063191     0.04700
H1954       H  0.38061642  0.87953809  0.42124899     0.07900
H1955       H  0.36185693  0.92306516  0.41938565     0.07900
H1956       H  0.21694055  0.81360659  0.41307079     0.07900
H1957       H  0.20117420  0.85820523  0.41380844     0.07900
H1958       H  0.21322238  0.83664956  0.45363893     0.04700
C1959       C  0.08366445  0.89190161  0.25604492    -0.21100
C1960       C  0.10176403  0.86664580  0.27578359    -0.07700
C1961       C  0.08804612  0.85858595  0.30984564     0.13200
C1962       C  0.05769655  0.87528960  0.32235899    -0.21200
C1963       C  0.03961073  0.89991532  0.30256589    -0.07700
C1964       C  0.05287421  0.90835763  0.26892408     0.13200
C1965       C  0.03497398  0.93541331  0.24692359    -0.24500
H1966       H  0.09359759  0.89887585  0.23046390     0.14500
H1967       H  0.04753761  0.86864752  0.34796610     0.14500
C1968       C  0.10472371  0.83236356  0.33409144    -0.24500
H1969       H  0.04892838  0.93982919  0.22182907     0.04700
H1970       H  0.03405213  0.96046988  0.26140398     0.07900
H1971       H  0.00798324  0.92690782  0.24079981     0.07900
H1972       H  0.13148048  0.84083023  0.34110568     0.07900
H1973       H  0.10520886  0.80632621  0.32151861     0.07900
H1974       H  0.09013344  0.82949100  0.35905438     0.04700
C1975       C  0.06294649  0.71362161  0.13428288    -0.21100
C1976       C  0.03459010  0.73645503  0.13450884    -0.07700
C1977       C  0.03754034  0.76848584  0.15284721     0.13200
C1978       C  0.06599173  0.77365295  0.17526411    -0.21200
C1979       C  0.09181816  0.74813419  0.17904454    -0.07700
C1980       C  0.09134529  0.71854979  0.15632314     0.13200
C1981       C  0.11945075  0.69081303  0.15513086    -0.24500
H1982       H  0.06196861  0.69020654  0.11855807     0.14500
H1983       H  0.06759858  0.79741124  0.19045457     0.14500
C1984       C  0.01136479  0.79753491  0.14892877    -0.24500
H1985       H  0.11418210  0.67054011  0.13508183     0.04700
H1986       H  0.12111134  0.67729206  0.18063492     0.07900
H1987       H  0.14503402  0.70246018  0.14836790     0.07900
H1988       H  0.98701160  0.79143850  0.16335726     0.07900
H1989       H  0.00565796  0.80190291  0.12078354     0.07900
H1990       H  0.02153753  0.82237266  0.15977822     0.04700
C1991       C  0.13130486  0.78889103  0.11458565    -0.21100
C1992       C  0.16462109  0.77654721  0.12392006    -0.07700
C1993       C  0.17912073  0.74892417  0.10361849     0.13200
C1994       C  0.15789772  0.73034730  0.08052010    -0.21200
C1995       C  0.12401009  0.74100659  0.07299702    -0.07700
C1996       C  0.11172137  0.77247111  0.08783194     0.13200
C1997       C  0.07869273  0.78906927  0.07470564    -0.24500
H1998       H  0.12051916  0.81115251  0.12823324     0.14500
H1999       H  0.16896236  0.70863906  0.06605953     0.14500
C2000       C  0.21727809  0.73937917  0.10275985    -0.24500
H2001       H  0.07198303  0.81280236  0.08989288     0.04700
H2002       H  0.05665900  0.77047561  0.07649748     0.07900
H2003       H  0.08210317  0.79661352  0.04687039     0.07900
H2004       H  0.23396734  0.75542653  0.11976537     0.07900
H2005       H  0.22720108  0.74289693  0.07567894     0.07900
H2006       H  0.22051891  0.71151357  0.10922124     0.04700
C2007       C  0.28996760  0.89810177  0.10576787    -0.21100
C2008       C  0.27201940  0.86631532  0.10384828    -0.07700
C2009       C  0.25592530  0.85682751  0.07177126     0.13200
C2010       C  0.26200680  0.87718910  0.04196240    -0.21200
C2011       C  0.28343793  0.90681595  0.04325671    -0.07700
C2012       C  0.29576952  0.91857234  0.07619920     0.13200
C2013       C  0.31538951  0.95233566  0.08107122    -0.24500
H2014       H  0.30065367  0.90670730  0.13053149     0.14500
H2015       H  0.25151013  0.86862937  0.01708407     0.14500
C2016       C  0.23343700  0.82488808  0.06788624    -0.24500
H2017       H  0.31909947  0.95848045  0.10916407     0.04700
H2018       H  0.30063205  0.97412833  0.06905924     0.07900
H2019       H  0.34197997  0.95060411  0.06979181     0.07900
H2020       H  0.21080967  0.82647513  0.08597936     0.07900
H2021       H  0.24925071  0.80140367  0.07343569     0.07900
H2022       H  0.22286803  0.82210146  0.04096729     0.04700
C2023       C  0.30546987  0.15277883  0.15450428    -0.21100
C2024       C  0.28224022  0.12463988  0.15310816    -0.07700
C2025       C  0.24666618  0.13151789  0.16184792     0.13200
C2026       C  0.23603109  0.16561502  0.17210910    -0.21200
C2027       C  0.25979019  0.19354855  0.17464669    -0.07700
C2028       C  0.29517853  0.18647250  0.16490947     0.13200
C2029       C  0.32287460  0.21412908  0.16283840    -0.24500
H2030       H  0.33248422  0.14841052  0.14746521     0.14500
H2031       H  0.20919280  0.17005030  0.17976691     0.14500
C2032       C  0.21947295  0.10325163  0.16060399    -0.24500
H2033       H  0.34939098  0.20296409  0.15937065     0.04700
H2034       H  0.32393438  0.23003866  0.18676911     0.07900
H2035       H  0.31796423  0.23015795  0.13945711     0.07900
H2036       H  0.22534032  0.08306811  0.18050094     0.07900
H2037       H  0.21888642  0.09136665  0.13411774     0.07900
H2038       H  0.19297543  0.11348051  0.16635789     0.04700
C2039       C  0.28163885  0.94661175  0.20138227    -0.21100
C2040       C  0.25082609  0.93154392  0.18778772    -0.07700
C2041       C  0.23415053  0.94905515  0.15967777     0.13200
C2042       C  0.24851458  0.98062710  0.14649452    -0.21200
C2043       C  0.27971690  0.99476513  0.15996964    -0.07700
C2044       C  0.29630915  0.97728643  0.18776798     0.13200
C2045       C  0.32957346  0.99119388  0.20357346    -0.24500
H2046       H  0.29488810  0.93413132  0.22294760     0.14500
H2047       H  0.23579968  0.99389233  0.12500630     0.14500
C2048       C  0.20195303  0.93426152  0.14281028    -0.24500
H2049       H  0.33873610  0.97490994  0.22573818     0.04700
H2050       H  0.32521861  0.01800388  0.21352008     0.07900
H2051       H  0.35056537  0.99159058  0.18354550     0.07900
H2052       H  0.18057651  0.93243817  0.16233413     0.07900
H2053       H  0.20770254  0.90798502  0.13215020     0.07900
H2054       H  0.19272281  0.95082303  0.12088809     0.04700
C2055       C  0.16396006  0.12099415  0.33777750    -0.21100
C2056       C  0.13302093  0.11598670  0.31919756    -0.07700
C2057       C  0.12833662  0.13208306  0.28631951     0.13200
C2058       C  0.15422869  0.15470196  0.27375551    -0.21200
C2059       C  0.18470356  0.16050115  0.29310066    -0.07700
C2060       C  0.19000832  0.14272382  0.32491022     0.13200
C2061       C  0.22328034  0.14673967  0.34532782    -0.24500
H2062       H  0.16815553  0.10702266  0.36208530     0.14500
H2063       H  0.14978845  0.16945029  0.24997732     0.14500
C2064       C  0.09560854  0.12647575  0.26532799    -0.24500
H2065       H  0.22327991  0.13071059  0.36950931     0.04700
H2066       H  0.22714451  0.17427343  0.35318598     0.07900
H2067       H  0.24521637  0.13789436  0.32860051     0.07900
H2068       H  0.07254987  0.13428841  0.28109781     0.07900
H2069       H  0.09319659  0.09863039  0.25799309     0.07900
H2070       H  0.09571364  0.14211901  0.24088242     0.04700
C2071       C  0.13380976  0.99543590  0.28270218    -0.21100
C2072       C  0.11229802  0.99444042  0.31270184    -0.07700
C2073       C  0.10932175  0.96281218  0.33136145     0.13200
C2074       C  0.13270560  0.93621720  0.32405950    -0.21200
C2075       C  0.15864028  0.93955649  0.29815070    -0.07700
C2076       C  0.15721467  0.96833595  0.27517760     0.13200
C2077       C  0.18038654  0.97127313  0.24340660    -0.24500
H2078       H  0.13456816  0.01868376  0.26668018     0.14500
H2079       H  0.13163676  0.91330054  0.34048024     0.14500
C2080       C  0.08436137  0.95733356  0.36142228    -0.24500
H2081       H  0.17420965  0.99475778  0.22764959     0.04700
H2082       H  0.17659664  0.94816538  0.22638132     0.07900
H2083       H  0.20814801  0.97322027  0.25140456     0.07900
H2084       H  0.05875144  0.96916743  0.35522006     0.07900
H2085       H  0.09517981  0.96890632  0.38571298     0.07900
H2086       H  0.07996411  0.92928177  0.36673293     0.04700
C2087       C  0.29664533  0.41490135  0.81405833    -0.21100
C2088       C  0.29186823  0.41591212  0.77738257    -0.07700
C2089       C  0.30447749  0.44511224  0.75909788     0.13200
C2090       C  0.31906683  0.47323605  0.77816410    -0.21200
C2091       C  0.32228998  0.47253576  0.81512178    -0.07700
C2092       C  0.31227480  0.44192785  0.83291228     0.13200
C2093       C  0.31604198  0.43782288  0.87201611    -0.24500
H2094       H  0.28648034  0.39311073  0.82889833     0.14500
H2095       H  0.32702920  0.49646162  0.76414848     0.14500
C2096       C  0.30085681  0.44742982  0.72003571    -0.24500
H2097       H  0.30616771  0.41224289  0.88131977     0.04700
H2098       H  0.30100408  0.45835770  0.88582335     0.07900
H2099       H  0.34404175  0.43934013  0.87930025     0.07900
H2100       H  0.27291657  0.44572089  0.71270963     0.07900
H2101       H  0.31533963  0.42567626  0.70756851     0.07900
H2102       H  0.31146132  0.47230707  0.70974388     0.04700
C2103       C  0.12338500  0.49478809  0.67662401    -0.21100
C2104       C  0.15088305  0.51263970  0.66043172    -0.07700
C2105       C  0.18561680  0.50123266  0.66545613     0.13200
C2106       C  0.19168945  0.47128398  0.68565355    -0.21200
C2107       C  0.16386580  0.45280948  0.70061038    -0.07700
C2108       C  0.12933780  0.46509095  0.69662998     0.13200
C2109       C  0.09854139  0.44727994  0.71372867    -0.24500
H2110       H  0.09686206  0.50414888  0.67353678     0.14500
H2111       H  0.21803215  0.46145513  0.68859105     0.14500
C2112       C  0.21599635  0.51945998  0.64837542    -0.24500
H2113       H  0.07407578  0.46239411  0.71035806     0.04700
H2114       H  0.10330237  0.44440245  0.74224471     0.07900
H2115       H  0.09407170  0.42132197  0.70183276     0.07900
H2116       H  0.21845040  0.54632432  0.65874560     0.07900
H2117       H  0.21205180  0.52038988  0.61960916     0.07900
H2118       H  0.24101310  0.50579800  0.65355414     0.04700
C2119       C  0.33808934  0.23803636  0.66442600    -0.21100
C2120       C  0.33711005  0.27219724  0.67788526    -0.07700
C2121       C  0.36897579  0.29108788  0.67819295     0.13200
C2122       C  0.40015625  0.27521752  0.66596967    -0.21200
C2123       C  0.40130909  0.24061291  0.65330149    -0.07700
C2124       C  0.36900667  0.22229002  0.65174546     0.13200
C2125       C  0.36635862  0.18569954  0.63769438    -0.11500
H2126       H  0.31423094  0.22296394  0.66444476     0.14500
H2127       H  0.42416441  0.29009485  0.66726077     0.14500
C2128       C  0.37205344  0.32722116  0.69309209    -0.24500
H2129       H  0.33922578  0.17555924  0.63886570     0.04700
H2130       H  0.38294184  0.16792115  0.65339806     0.07900
H2131       H  0.37445632  0.18517509  0.60979468     0.07900
H2132       H  0.34718550  0.33764423  0.70322675     0.07900
H2133       H  0.38168181  0.34523379  0.67252792     0.07900
H2134       H  0.39105783  0.32700808  0.71501330     0.04700
C2135       C  0.37481781  0.37086227  0.77844817    -0.21100
C2136       C  0.36433660  0.34390596  0.80074491    -0.07700
C2137       C  0.37858979  0.34116157  0.83462244     0.13200
C2138       C  0.40198773  0.36644158  0.84609997    -0.21200
C2139       C  0.41202505  0.39383363  0.82419117    -0.07700
C2140       C  0.39909129  0.39571226  0.78960373     0.13200
C2141       C  0.40940905  0.42402668  0.76432878    -0.24500
H2142       H  0.36246317  0.37386142  0.75316911     0.14500
H2143       H  0.41323969  0.36431041  0.87204033     0.14500
C2144       C  0.36879125  0.31164137  0.85880647    -0.24500
H2145       H  0.38572249  0.43798016  0.75527645     0.04700
H2146       H  0.42263309  0.41225236  0.74131878     0.07900
H2147       H  0.42715231  0.44359004  0.77606579     0.07900
H2148       H  0.37478188  0.28640099  0.84597620     0.07900
H2149       H  0.34058434  0.31259911  0.86528364     0.07900
H2150       H  0.38346291  0.31281794  0.88382527     0.04700
C2151       C  0.28862286  0.18434771  0.79637150    -0.21100
C2152       C  0.25275575  0.19044206  0.80316108    -0.07700
C2153       C  0.23655210  0.17012283  0.82944915     0.13200
C2154       C  0.25621014  0.14417601  0.84711069    -0.21200
C2155       C  0.29193494  0.13844754  0.83983523    -0.07700
C2156       C  0.30814310  0.15911077  0.81416361     0.13200
C2157       C  0.34572974  0.15332564  0.80389394    -0.24500
H2158       H  0.30201985  0.19949373  0.77654600     0.14500
H2159       H  0.24335576  0.12749312  0.86603247     0.14500
C2160       C  0.19854299  0.17470596  0.83808541    -0.24500
H2161       H  0.35420666  0.17132579  0.78278848     0.04700
H2162       H  0.34926040  0.12627997  0.79426455     0.07900
H2163       H  0.36291234  0.15772084  0.82680368     0.07900
H2164       H  0.18253243  0.16990281  0.81436368     0.07900
H2165       H  0.19377073  0.20151752  0.84765613     0.07900
H2166       H  0.18991819  0.15633147  0.85879246     0.04700
C2167       C  0.10852366  0.13433727  0.66328410    -0.21100
C2168       C  0.11710551  0.10566343  0.68449029    -0.07700
C2169       C  0.14267157  0.11029321  0.71094935     0.13200
C2170       C  0.16088735  0.14205781  0.71287168    -0.21200
C2171       C  0.15482308  0.16921988  0.68889723    -0.07700
C2172       C  0.12735528  0.16542558  0.66425885     0.13200
C2173       C  0.11815205  0.19284897  0.63742688    -0.24500
H2174       H  0.08792596  0.13196953  0.64407087     0.14500
H2175       H  0.18082308  0.14521136  0.73269421     0.14500
C2176       C  0.15161801  0.08224242  0.73702430    -0.24500
H2177       H  0.09650013  0.18452963  0.62001693     0.04700
H2178       H  0.14105465  0.19824987  0.62044620     0.07900
H2179       H  0.10941378  0.21701640  0.65058264     0.07900
H2180       H  0.16396861  0.05980883  0.72355981     0.07900
H2181       H  0.12764540  0.07374356  0.75097016     0.07900
H2182       H  0.17042682  0.09158893  0.75704534     0.04700
C2183       C  0.04181556  0.25463632  0.67542265    -0.21100
C2184       C  0.03126233  0.22172841  0.68702957    -0.07700
C2185       C  0.05178442  0.20511126  0.71295011     0.13200
C2186       C  0.08212844  0.22173368  0.72654586    -0.21200
C2187       C  0.09331460  0.25457860  0.71437057    -0.07700
C2188       C  0.07231004  0.27107272  0.68815635     0.13200
C2189       C  0.08151744  0.30612746  0.67277336    -0.24500
H2190       H  0.02620812  0.26743627  0.65559088     0.14500
H2191       H  0.09785580  0.20837959  0.74587949     0.14500
C2192       C  0.04192718  0.16944990  0.72576691    -0.24500
H2193       H  0.06105054  0.31575011  0.65463586     0.04700
H2194       H  0.10601504  0.30429013  0.65737033     0.07900
H2195       H  0.08434795  0.32573031  0.69387849     0.07900
H2196       H  0.04166926  0.15091381  0.70346264     0.07900
H2197       H  0.01555936  0.17028415  0.73781414     0.07900
H2198       H  0.06067914  0.15964559  0.74558728     0.04700
C2199       C  0.03216741  0.34599929  0.83075820    -0.21100
C2200       C  0.03417244  0.37291449  0.85573671    -0.07700
C2201       C  0.06612859  0.39084888  0.86009531     0.13200
C2202       C  0.09256912  0.38549598  0.83586505    -0.21200
C2203       C  0.08853001  0.36247572  0.80750410    -0.07700
C2204       C  0.05889230  0.34059708  0.80638211     0.13200
C2205       C  0.05463237  0.31200912  0.77966380    -0.24500
H2206       H  0.00852708  0.33070419  0.82844437     0.14500
H2207       H  0.11615933  0.40079974  0.83863471     0.14500
C2208       C  0.07263547  0.41705148  0.88879682    -0.24500
H2209       H  0.05327658  0.32322707  0.75295960     0.04700
H2210       H  0.07682718  0.29355812  0.78159453     0.07900
H2211       H  0.03029232  0.29687334  0.78387442     0.07900
H2212       H  0.06269941  0.40671194  0.91400426     0.07900
H2213       H  0.05996430  0.44222525  0.88251551     0.07900
H2214       H  0.10087976  0.42266644  0.89196459     0.04700
C2215       C  0.32728725  0.25698763  0.06015745    -0.21100
C2216       C  0.30533361  0.22836825  0.05469633    -0.07700
C2217       C  0.27228030  0.22666429  0.07065773     0.13200
C2218       C  0.26230064  0.25344582  0.09317912    -0.21200
C2219       C  0.28501397  0.28116591  0.09997219    -0.07700
C2220       C  0.31749890  0.28350942  0.08295456     0.13200
C2221       C  0.34212967  0.31337819  0.08991440    -0.24500
H2222       H  0.35210464  0.25849976  0.04657193     0.14500
H2223       H  0.23808123  0.25129432  0.10778998     0.14500
C2224       C  0.24852984  0.19586819  0.06533285    -0.24500
H2225       H  0.36616311  0.31146841  0.07375104     0.04700
H2226       H  0.35008178  0.31363174  0.11784263     0.07900
H2227       H  0.32896777  0.33833497  0.08360710     0.07900
H2228       H  0.26208822  0.17170608  0.07364140     0.07900
H2229       H  0.24124015  0.19368912  0.03732065     0.07900
H2230       H  0.22414391  0.19828996  0.08089856     0.04700
C2231       C  0.26665214  0.21826894  0.93234117    -0.21100
C2232       C  0.30010861  0.20297538  0.93368154    -0.07700
C2233       C  0.32300690  0.20667992  0.90482628     0.13200
C2234       C  0.31282471  0.22758310  0.87715240    -0.21200
C2235       C  0.28085715  0.24545631  0.87724101    -0.07700
C2236       C  0.25694430  0.24015492  0.90475448     0.13200
C2237       C  0.22172952  0.25771014  0.90571274    -0.24500
H2238       H  0.24888180  0.21500894  0.95416939     0.14500
H2239       H  0.33108506  0.23123520  0.85582715     0.14500
C2240       C  0.35928604  0.19127460  0.90323920    -0.24500
H2241       H  0.20589458  0.24899479  0.92843588     0.04700
H2242       H  0.20690656  0.25160390  0.88156659     0.07900
H2243       H  0.22505930  0.28632785  0.90795675     0.07900
H2244       H  0.35798837  0.16264208  0.90650834     0.07900
H2245       H  0.37603332  0.20305465  0.92375508     0.07900
H2246       H  0.37239889  0.19636918  0.87783011     0.04700
C2247       C  0.15138626  0.32328311  0.10295274    -0.21100
C2248       C  0.16881204  0.34652795  0.12560808    -0.07700
C2249       C  0.17178232  0.38201714  0.11453216     0.13200
C2250       C  0.15724938  0.39279547  0.08246821    -0.21200
C2251       C  0.14035266  0.36962317  0.05987385    -0.07700
C2252       C  0.13747266  0.33429345  0.07029335     0.13200
C2253       C  0.11873240  0.30835485  0.04755507    -0.24500
H2254       H  0.14875272  0.29630926  0.11068223     0.14500
H2255       H  0.15962152  0.41976020  0.07457585     0.14500
C2256       C  0.19039811  0.40942640  0.13580654    -0.24500
H2257       H  0.11753853  0.28226833  0.06000102     0.04700
H2258       H  0.13254182  0.30557063  0.02216972     0.07900
H2259       H  0.09158996  0.31729649  0.04280876     0.07900
H2260       H  0.21832445  0.40230369  0.13855408     0.07900
H2261       H  0.17788270  0.41215820  0.16186450     0.07900
H2262       H  0.18959504  0.43544110  0.12318009     0.04700
C2263       C  0.12414998  0.33825108  0.91595676    -0.21100
C2264       C  0.13849525  0.36921177  0.92981933    -0.07700
C2265       C  0.16687944  0.38436301  0.91180501     0.13200
C2266       C  0.17980913  0.36889624  0.88082732    -0.21200
C2267       C  0.16548096  0.33811980  0.86628711    -0.07700
C2268       C  0.13699337  0.32276400  0.88449546     0.13200
C2269       C  0.11967287  0.29041193  0.87075742    -0.24500
H2270       H  0.10255655  0.32621714  0.92970588     0.14500
H2271       H  0.20164599  0.38134478  0.86779223     0.14500
C2272       C  0.18414898  0.41679176  0.92568175    -0.24500
H2273       H  0.09749929  0.28222129  0.88758727     0.04700
H2274       H  0.13881639  0.26875338  0.86987637     0.07900
H2275       H  0.10938703  0.29524796  0.84407198     0.07900
H2276       H  0.19430796  0.41189015  0.95243168     0.07900
H2277       H  0.16495113  0.43839612  0.92663634     0.07900
H2278       H  0.20635163  0.42516713  0.90895985     0.04700
C2279       C  0.55731440  0.37070674  0.17672037    -0.21100
C2280       C  0.55116249  0.40409152  0.18951216    -0.07700
C2281       C  0.57063527  0.41681908  0.21805567     0.13200
C2282       C  0.59671541  0.39580748  0.23293226    -0.21200
C2283       C  0.60337437  0.36236067  0.21979351    -0.07700
C2284       C  0.58314873  0.34959819  0.19114308     0.13200
C2285       C  0.58821450  0.31395827  0.17495630    -0.24500
H2286       H  0.54141268  0.36099114  0.15537327     0.14500
H2287       H  0.61259785  0.40592528  0.25400770     0.14500
C2288       C  0.56410856  0.45264192  0.23246738    -0.24500
H2289       H  0.56731685  0.30750337  0.15590574     0.04700
H2290       H  0.58790394  0.29360470  0.19538917     0.07900
H2291       H  0.61317173  0.31291984  0.16034613     0.07900
H2292       H  0.53697303  0.45436120  0.24251654     0.07900
H2293       H  0.56781897  0.47227646  0.21149526     0.07900
H2294       H  0.58224924  0.45895285  0.25421493     0.04700
C2295       C  0.42530166  0.38486488  0.21372170    -0.21100
C2296       C  0.42533201  0.41347345  0.19081776    -0.07700
C2297       C  0.39316774  0.42532613  0.17691483     0.13200
C2298       C  0.36312335  0.40602886  0.18300175    -0.21200
C2299       C  0.36393904  0.37469979  0.20161784    -0.07700
C2300       C  0.39509605  0.36503989  0.21922219     0.13200
C2301       C  0.39755887  0.33367210  0.24288598    -0.24500
H2302       H  0.44958890  0.37626404  0.22542254     0.14500
H2303       H  0.33898780  0.41472295  0.17108719     0.14500
C2304       C  0.38960151  0.45730134  0.15430444    -0.24500
H2305       H  0.42365147  0.33148810  0.25535070     0.04700
H2306       H  0.39335902  0.30946320  0.22763268     0.07900
H2307       H  0.37796229  0.33574680  0.26420790     0.07900
H2308       H  0.40128614  0.45301086  0.12814082     0.07900
H2309       H  0.40160386  0.48010938  0.16747764     0.07900
H2310       H  0.36183645  0.46331343  0.14909089     0.04700
C2311       C  0.51901066  0.24951299  0.31054290    -0.21100
C2312       C  0.52046173  0.22522549  0.33807835    -0.07700
C2313       C  0.55318982  0.21128718  0.34782888     0.13200
C2314       C  0.58290142  0.22101515  0.32921765    -0.21200
C2315       C  0.58123203  0.24306952  0.29988280    -0.07700
C2316       C  0.54873163  0.25825920  0.29095489     0.13200
C2317       C  0.54437082  0.28264364  0.26039451    -0.24500
H2318       H  0.49410223  0.26044635  0.30294464     0.14500
H2319       H  0.60755008  0.20973146  0.33700615     0.14500
C2320       C  0.55759716  0.18551496  0.37722501    -0.24500
H2321       H  0.55037367  0.26857079  0.23578150     0.04700
H2322       H  0.56175005  0.30557261  0.26347056     0.07900
H2323       H  0.51720831  0.29248874  0.25816884     0.07900
H2324       H  0.54575728  0.16015641  0.37005567     0.07900
H2325       H  0.54537111  0.19589527  0.40140157     0.07900
H2326       H  0.58547542  0.18016218  0.38279346     0.04700
C2327       C  0.38697385  0.22564153  0.30841976    -0.21100
C2328       C  0.39544042  0.23554548  0.34238298    -0.07700
C2329       C  0.38071066  0.26639349  0.35623084     0.13200
C2330       C  0.35463823  0.28433507  0.33719086    -0.21200
C2331       C  0.34478438  0.27334550  0.30352191    -0.07700
C2332       C  0.36269564  0.24417646  0.28852344     0.13200
C2333       C  0.35696297  0.23157859  0.25149389    -0.24500
H2334       H  0.40022176  0.20342487  0.29702516     0.14500
H2335       H  0.34189030  0.30672786  0.34868967     0.14500
C2336       C  0.39321428  0.28080481  0.39057325    -0.24500
H2337       H  0.37642734  0.21169316  0.24347185     0.04700
H2338       H  0.35948480  0.25368413  0.23298714     0.07900
H2339       H  0.33101136  0.21896843  0.24916704     0.07900
H2340       H  0.42102794  0.28852217  0.38815793     0.07900
H2341       H  0.39099615  0.26080737  0.41132780     0.07900
H2342       H  0.37791708  0.30401782  0.39863476     0.04700
C2343       C  0.32504025  0.48027000  0.22659632    -0.21100
C2344       C  0.31225969  0.49511141  0.19528894    -0.07700
C2345       C  0.28307163  0.47935641  0.17936344     0.13200
C2346       C  0.26736276  0.44994679  0.19474169    -0.21200
C2347       C  0.28019388  0.43409838  0.22557120    -0.07700
C2348       C  0.30981955  0.44973558  0.24153823     0.13200
C2349       C  0.32597048  0.43407726  0.27372307    -0.24500
H2350       H  0.34743422  0.49219298  0.23903348     0.14500
H2351       H  0.24478207  0.43896962  0.18192964     0.14500
C2352       C  0.26797302  0.49383721  0.14598217    -0.24500
H2353       H  0.34894568  0.44927622  0.28268874     0.04700
H2354       H  0.33484693  0.40715677  0.26801980     0.07900
H2355       H  0.30654194  0.43358067  0.29529155     0.07900
H2356       H  0.28776664  0.49260634  0.12478740     0.07900
H2357       H  0.25995183  0.52131185  0.15006090     0.07900
H2358       H  0.24473155  0.47894153  0.13719095     0.04700
C2359       C  0.28268419  0.63378878  0.17840906    -0.21100
C2360       C  0.31527876  0.62343183  0.19092419    -0.07700
C2361       C  0.33172036  0.64456738  0.21650732     0.13200
C2362       C  0.31561186  0.67604474  0.22790797    -0.21200
C2363       C  0.28312575  0.68712788  0.21449689    -0.07700
C2364       C  0.26616668  0.66451041  0.18999776     0.13200
C2365       C  0.22968849  0.67093055  0.17668944    -0.24500
H2366       H  0.26960705  0.61708229  0.15969805     0.14500
H2367       H  0.32894353  0.69249912  0.24664129     0.14500
C2368       C  0.36643118  0.63408423  0.23148665    -0.24500
H2369       H  0.22122726  0.65087504  0.15754422     0.04700
H2370       H  0.22805664  0.69618710  0.16329948     0.07900
H2371       H  0.21091089  0.67005497  0.19858005     0.07900
H2372       H  0.38609489  0.63187904  0.21027385     0.07900
H2373       H  0.36392934  0.60853025  0.24479853     0.07900
H2374       H  0.37606965  0.65342648  0.25080845     0.04700
C2375       C  0.18822498  0.46524476  0.31470494    -0.21100
C2376       C  0.16416142  0.43772779  0.31607720    -0.07700
C2377       C  0.13810747  0.43776444  0.34261867     0.13200
C2378       C  0.13551405  0.46635832  0.36475880    -0.21200
C2379       C  0.15558061  0.49640079  0.35937935    -0.07700
C2380       C  0.18426509  0.49480568  0.33583496     0.13200
C2381       C  0.21058985  0.52378718  0.33202032    -0.24500
H2382       H  0.20948252  0.46430680  0.29598299     0.14500
H2383       H  0.11514573  0.46630724  0.38445285     0.14500
C2384       C  0.11105311  0.40936307  0.34698965    -0.24500
H2385       H  0.23340743  0.51556795  0.31606863     0.04700
H2386       H  0.22050021  0.53149032  0.35819238     0.07900
H2387       H  0.19886170  0.54645571  0.31848405     0.07900
H2388       H  0.12368752  0.38444011  0.35399079     0.07900
H2389       H  0.09584786  0.40635917  0.32245322     0.07900
H2390       H  0.09211635  0.41520852  0.36822711     0.04700
C2391       C  0.12066082  0.62901123  0.31640629    -0.21100
C2392       C  0.14436905  0.61928645  0.34240212    -0.07700
C2393       C  0.17825489  0.63376897  0.34286671     0.13200
C2394       C  0.18745302  0.65819678  0.31719722    -0.21200
C2395       C  0.16338271  0.66816834  0.29154121    -0.07700
C2396       C  0.12973661  0.65315422  0.29086663     0.13200
C2397       C  0.10351608  0.66184421  0.26274157    -0.24500
H2398       H  0.09513748  0.61682530  0.31544407     0.14500
H2399       H  0.21277849  0.67077058  0.31813188     0.14500
C2400       C  0.20403887  0.62464186  0.37111267    -0.24500
H2401       H  0.07933240  0.64608580  0.26527775     0.04700
H2402       H  0.11509314  0.65620680  0.23678338     0.07900
H2403       H  0.09574508  0.68959831  0.26413322     0.07900
H2404       H  0.21091529  0.59666669  0.36963730     0.07900
H2405       H  0.19249722  0.63033748  0.39715720     0.07900
H2406       H  0.22853943  0.63990926  0.36855772     0.04700
C2407       C  0.15131946  0.35734874  0.42016905    -0.21100
C2408       C  0.16196176  0.39051904  0.43103838    -0.07700
C2409       C  0.19021323  0.40624399  0.41292121     0.13200
C2410       C  0.20558959  0.38943067  0.38341970    -0.21200
C2411       C  0.19404443  0.35654536  0.37159594    -0.07700
C2412       C  0.16679693  0.34013983  0.39128029     0.13200
C2413       C  0.15363917  0.30410348  0.38254311    -0.24500
H2414       H  0.13061589  0.34458379  0.43468832     0.14500
H2415       H  0.22626203  0.40242160  0.36915180     0.14500
C2416       C  0.20421005  0.44083724  0.42487301    -0.24500
H2417       H  0.13478031  0.29439050  0.40236617     0.04700
H2418       H  0.17578698  0.28550255  0.38170330     0.07900
H2419       H  0.13978098  0.30427601  0.35707188     0.07900
H2420       H  0.21424486  0.43850464  0.45201800     0.07900
H2421       H  0.18311497  0.46060791  0.42436559     0.07900
H2422       H  0.22582876  0.45005661  0.40784852     0.04700
C2423       C  0.15340876  0.37909712  0.62177837    -0.21100
C2424       C  0.18882478  0.36988264  0.62433059    -0.07700
C2425       C  0.21053960  0.37594611  0.59497205     0.13200
C2426       C  0.19585349  0.38923306  0.56362430    -0.21200
C2427       C  0.15998837  0.39746454  0.56080672    -0.07700
C2428       C  0.13879666  0.39297109  0.59108472     0.13200
C2429       C  0.10026385  0.40116995  0.59152154    -0.24500
H2430       H  0.13648758  0.37459430  0.64405994     0.14500
H2431       H  0.21252589  0.39284375  0.54099776     0.14500
C2432       C  0.24878855  0.36717229  0.59603656    -0.24500
H2433       H  0.08788189  0.39440090  0.61693135     0.04700
H2434       H  0.08665540  0.38602755  0.57088129     0.07900
H2435       H  0.09617938  0.42948471  0.58753031     0.07900
H2436       H  0.25218399  0.33908283  0.60183692     0.07900
H2437       H  0.26186016  0.38287599  0.61660226     0.07900
H2438       H  0.26184937  0.37278366  0.57069714     0.04700
C2439       C  0.33400603  0.20696993  0.40495851    -0.21100
C2440       C  0.33172075  0.22957107  0.43352823    -0.07700
C2441       C  0.31203044  0.26075225  0.43020925     0.13200
C2442       C  0.29086057  0.26516578  0.40077314    -0.21200
C2443       C  0.28954323  0.23990425  0.37434441    -0.07700
C2444       C  0.31310818  0.21126903  0.37560101     0.13200
C2445       C  0.31599903  0.18374871  0.34747839    -0.24500
H2446       H  0.35066458  0.18425287  0.40637250     0.14500
H2447       H  0.27481118  0.28830449  0.39871665     0.14500
C2448       C  0.31301311  0.28972677  0.45692613    -0.24500
H2449       H  0.33569678  0.16351024  0.35379802     0.04700
H2450       H  0.29076239  0.17041225  0.34448590     0.07900
H2451       H  0.32389621  0.19533753  0.32223204     0.07900
H2452       H  0.34050282  0.29601838  0.46360717     0.07900
H2453       H  0.29825282  0.28240704  0.48078947     0.07900
H2454       H  0.30080799  0.31389245  0.44671017     0.04700
C2455       C  0.27817553  0.21007699  0.55522824    -0.21100
C2456       C  0.31075348  0.22658504  0.55444570    -0.07700
C2457       C  0.31693663  0.25685199  0.57410364     0.13200
C2458       C  0.29082221  0.26850960  0.59669230    -0.21200
C2459       C  0.25908168  0.25056835  0.59906900    -0.07700
C2460       C  0.25201572  0.22191801  0.57743644     0.13200
C2461       C  0.21733650  0.20336180  0.57879463    -0.24500
H2462       H  0.27325547  0.18790420  0.53832627     0.14500
H2463       H  0.29595893  0.29018009  0.61414820     0.14500
C2464       C  0.35124172  0.27586957  0.57202373    -0.24500
H2465       H  0.21604957  0.18172656  0.55954702     0.04700
H2466       H  0.19607302  0.22203569  0.57273747     0.07900
H2467       H  0.21293654  0.19230319  0.60527419     0.07900
H2468       H  0.35548271  0.28550925  0.54496751     0.07900
H2469       H  0.37282119  0.25797447  0.57919128     0.07900
H2470       H  0.35195996  0.29852374  0.59009107     0.04700
loop_ 
_geom_bond_atom_site_label_1 
_geom_bond_atom_site_label_2 
_geom_bond_distance 
_geom_bond_site_symmetry_2 
_ccdc_geom_bond_type 
C1            N2   1.354       .  A
C1            N6   1.344       .  A
C1         C2456   1.440       .  S
N2            C3   1.353       .  A
C3            N4   1.354       .  A
C3          C863   1.454       .  S
N4            C5   1.359       .  A
C5            N6   1.343       .  A
C5         C2440   1.476       .  S
C7            N8   1.379       .  A
C7           N12   1.366       .  A
C7         C2408   1.512       .  S
N8            C9   1.376       .  A
C9           N10   1.360       .  A
C9          C761   1.512       .  S
N10          C11   1.362       .  A
C11          N12   1.365       .  A
C11        C2427   1.512       .  S
C13          N14   1.350       .  A
C13          N18   1.357       .  A
C13        C2379   1.483       .  S
N14          C15   1.352       .  A
C15          N16   1.360       .  A
C15        C2392   1.461       .  S
N16          C17   1.355       .  A
C17          N18   1.349       .  A
C17         C784   1.460       .  S
C19          N20   1.364       .  A
C19          N24   1.370       .  A
C19        C2344   1.509       .  S
N20          C21   1.365       .  A
C21          N22   1.372       .  A
C21        C2360   1.505       .  S
N22          C23   1.370       .  A
C23          N24   1.367       .  A
C23         C818   1.516       .  S
C25          N26   1.350       .  A
C25          N30   1.350       .  A
C25        C2312   1.483       .  S
N26          C27   1.353       .  A
C27          N28   1.376       .  A
C27        C2328   1.476       .  S
N28          C29   1.371       .  A
C29          N30   1.351       .  A
C29         C886   1.487       .  S
C31          N32   1.354       .  A
C31          N36   1.345       .  A
C31        C2296   1.478       .  S
N32          C33   1.356       .  A
C33          N34   1.367       .  A
C33        C2280   1.463       .  S
N34          C35   1.361       .  A
C35          N36   1.344       .  A
C35         C806   1.466       .  S
C37          N38   1.365       .  A
C37          N42   1.375       .  A
C37        C2264   1.515       .  S
N38          C39   1.366   1_556  A
C39          N40   1.369       .  A
C39        C2251   1.505       .  S
N40          C41   1.365   1_554  A
C41          N42   1.373       .  A
C41         C528   1.515       .  S
C43          N44   1.352       .  A
C43          N48   1.349       .  A
C43        C2232   1.471       .  S
N44          C45   1.351   1_556  A
C45          N46   1.354       .  A
C45         C561   1.451       .  S
N46          C47   1.355       .  A
C47          N48   1.347   1_554  A
C47        C2216   1.445       .  S
O49          C76   1.266       .  A
O49         Mn75   2.079       .  S
C50        C2459   1.435       .  S
C50          O83   1.263       .  A
C50          O80   1.264       .  A
O51         Mn58   2.171       .  S
O51         Mn69   2.108       .  S
O51         Mn73   2.181       .  S
O51         Mn75   2.094       .  S
O52          C62   1.268       .  A
O52         Mn86   2.084       .  S
O53          C76   1.262       .  A
O53         Mn69   2.045       .  S
O54          C81   1.268       .  A
O54         Mn73   2.187       .  S
O55         Mn86   1.929       .  S
O55         Mn75   1.946       .  S
O55          C71   1.213       .  S
C56        C2152   1.513       .  S
C56          O59   1.266       .  A
C56          O82   1.211       .  S
O57         Mn77   2.104       .  S
O57         Mn58   2.163       .  S
O57         Mn91   2.097       .  S
O57         Mn73   2.182       .  S
Mn58         O87   2.169       .  S
Mn58         O63   2.178       .  S
Mn58         O90   2.151       .  S
Mn58         O64   2.172       .  S
O59         Mn73   2.181       .  S
O60          C62   1.271       .  A
O60         Mn67   2.087       .  S
C61        C2120   1.517       .  S
C61          O87   1.265       .  A
C61          O74   1.217       .  S
C62        C2171   1.490       .  S
O63          C88   1.267       .  A
O64         Mn67   2.096       .  S
O64         Mn86   2.112       .  S
O64         Mn73   2.178       .  S
O65         Mn69   2.006       .  S
O65         Mn91   2.001       .  S
O65          C88   1.234       .  A
C66        C2235   1.465       .  S
C66          O92   1.264       .  A
C66          O68   1.267       .  A
Mn67         O80   2.055       .  S
Mn67         O82   1.937       .  S
Mn67         O74   1.969       .  S
O68         Mn91   2.070       .  S
Mn69         O85   2.086       .  S
Mn69         O79   1.968       .  S
O70          C72   1.266       .  A
O70         Mn75   2.071       .  S
C71        C2187   1.524       .  S
C71          O89   1.269       .  A
C72        C2107   1.466       .  S
C72          O85   1.269       .  A
Mn73         O89   2.189       .  S
O74         Mn77   1.955       .  S
Mn75         O93   1.958       .  S
C76        C2203   1.474       .  S
Mn77         O84   2.085       .  S
Mn77         O92   2.048       .  S
Mn77         O82   1.922       .  S
C78        C2136   1.451       .  S
C78          O84   1.269       .  A
C78          O94   1.264       .  A
O79         Mn91   1.967       .  S
O79          C81   1.217       .  S
C81        C2267   1.529       .  S
O83         Mn86   2.062       .  S
Mn86         O93   1.965       .  S
C88        C2088   1.500       .  S
O90          C95   1.265       .  A
Mn91         O94   2.063       .  S
O93          C95   1.222       .  S
C95        C2424   1.504       .  S
C96          N97   1.352       .  A
C96         N101   1.350       .  A
C96        C2072   1.482   1_545  S
N97          C98   1.349       .  A
C98          N99   1.359       .  A
C98         C483   1.468       .  S
N99         C100   1.365       .  A
C100        N101   1.351       .  A
C100       C2056   1.457       .  S
C102        N103   1.367       .  A
C102        N107   1.365       .  A
C102       C2043   1.500   1_545  S
N103        C104   1.363       .  A
C104        N105   1.368       .  A
C104        C573   1.506       .  S
N105        C106   1.373       .  A
C106        N107   1.366       .  A
C106       C2024   1.524       .  S
O108        C135   1.266       .  A
O108       Mn134   2.070       .  S
C109       C2395   1.456       .  S
C109        O142   1.269       .  A
C109        O139   1.263       .  A
O110       Mn117   2.165       .  S
O110       Mn128   2.096       .  S
O110       Mn132   2.166       .  S
O110       Mn134   2.093       .  S
O111        C121   1.256       .  A
O111       Mn145   2.048       .  S
O112        C135   1.276       .  A
O112       Mn128   2.101       .  S
O113        C140   1.265       .  A
O113       Mn132   2.172       .  S
O114       Mn145   1.945       .  S
O114       Mn134   1.943       .  S
O114        C130   1.216       .  S
C115       C1960   1.528       .  S
C115        O118   1.266       .  A
C115        O141   1.209       .  S
O116       Mn136   2.092       .  S
O116       Mn117   2.162       .  S
O116       Mn150   2.088       .  S
O116       Mn132   2.169       .  S
Mn117       O146   2.162       .  S
Mn117       O122   2.177       .  S
Mn117       O149   2.181       .  S
Mn117       O123   2.168       .  S
O118       Mn132   2.197       .  S
O119        C121   1.276       .  A
O119       Mn126   2.108       .  S
C120       C1928   1.499       .  S
C120        O146   1.267       .  A
C120        O133   1.214       .  S
C121       C1979   1.479       .  S
O122        C147   1.268       .  A
O123       Mn126   2.079       .  S
O123       Mn145   2.084       .  S
O123       Mn132   2.168       .  S
O124       Mn128   1.964       .  S
O124       Mn150   1.961       .  S
O124        C147   1.217       .  S
C125       C2075   1.481       .  S
C125        O151   1.264       .  A
C125        O127   1.269       .  A
Mn126       O139   2.070       .  S
Mn126       O141   1.950       .  S
Mn126       O133   1.948       .  S
O127       Mn150   2.095       .  S
Mn128       O144   2.086       .  S
Mn128       O138   1.948       .  S
O129        C131   1.262       .  A
O129       Mn134   2.050       .  S
C130       C1992   1.498       .  S
C130        O148   1.267       .  A
C131       C1912   1.473       .  S
C131        O144   1.267       .  A
Mn132       O148   2.158       .  S
O133       Mn136   1.951       .  S
Mn134       O152   1.968       .  S
C135       C2008   1.485       .  S
Mn136       O143   2.080       .  S
Mn136       O151   2.055       .  S
Mn136       O141   1.946       .  S
C137       C1944   1.480       .  S
C137        O143   1.271       .  A
C137        O153   1.274       .  A
O138       Mn150   1.959       .  S
O138        C140   1.217       .  S
C140       C2040   1.517       .  S
O142       Mn145   2.093       .  S
Mn145       O152   1.951       .  S
C147       C1896   1.524       .  S
O149        C154   1.266       .  A
Mn150       O153   2.093       .  S
O152        C154   1.215       .  S
C154       C2363   1.525       .  S
C155        N156   1.349       .  A
C155        N160   1.357       .  A
C155       C1883   1.485       .  S
N156        C157   1.348       .  A
C157        N158   1.367   1_655  A
C157        C506   1.485       .  S
N158        C159   1.376       .  A
C159        N160   1.362   1_455  A
C159       C1864   1.503       .  S
C161        N162   1.357       .  A
C161        N166   1.352       .  A
C161       C1832   1.477   1_655  S
N162        C163   1.356       .  A
C163        N164   1.359       .  A
C163        C516   1.471       .  S
N164        C165   1.363       .  A
C165        N166   1.354       .  A
C165       C1851   1.472       .  S
O167        C194   1.271       .  A
O167       Mn193   2.073       .  S
C168       C2315   1.486       .  S
C168        O201   1.268       .  A
C168        O198   1.268       .  A
O169       Mn176   2.170       .  S
O169       Mn187   2.100       .  S
O169       Mn191   2.166       .  S
O169       Mn193   2.092       .  S
O170        C180   1.273       .  A
O170       Mn204   2.102       .  S
O171        C194   1.269       .  A
O171       Mn187   2.090       .  S
O172        C199   1.255       .  A
O172       Mn191   2.115       .  S
O173       Mn204   1.945       .  S
O173       Mn193   1.944       .  S
O173        C189   1.211       .  S
C174       C1819   1.482       .  S
C174        O177   1.255       .  A
C174        O200   1.213       .  S
O175       Mn195   2.096       .  S
O175       Mn176   2.166       .  S
O175       Mn209   2.103       .  S
O175       Mn191   2.170       .  S
Mn176       O205   2.131       .  S
Mn176       O181   2.131       .  S
Mn176       O208   2.120       .  S
Mn176       O182   2.177       .  S
O177       Mn191   2.129       .  S
O178        C180   1.264       .  A
O178       Mn185   2.060       .  S
C179       C2283   1.476       .  S
C179        O205   1.257       .  A
C179        O192   1.230       .  A
C180       C1768   1.474       .  S
O181        C206   1.254       .  A
O182       Mn185   2.097       .  S
O182       Mn204   2.100       .  S
O182       Mn191   2.167       .  S
O183       Mn187   1.940       .  S
O183       Mn209   1.944       .  S
O183        C206   1.214       .  S
C184       C1800   1.473       .  S
C184        O210   1.266       .  A
C184        O186   1.265       .  A
Mn185       O198   2.088       .  S
Mn185       O192   1.998       .  S
Mn185       O200   1.966       .  S
O186       Mn209   2.072       .  S
Mn187       O203   2.073       .  S
Mn187       O197   1.951       .  S
O188        C190   1.269       .  A
O188       Mn193   2.091       .  S
C189       C1787   1.484       .  S
C189        O207   1.253       .  A
C190       C1736   1.490       .  S
C190        O203   1.270       .  A
Mn191       O207   2.128       .  S
O192       Mn195   1.993       .  S
Mn193       O211   1.941       .  S
C194       C1880   1.490       .  S
Mn195       O202   2.077       .  S
Mn195       O210   2.078       .  S
Mn195       O200   1.977       .  S
C196       C1704   1.491       .  S
C196        O202   1.271       .  A
C196        O212   1.269       .  A
O197       Mn209   1.942       .  S
O197        C199   1.215       .  S
C199       C1848   1.482       .  S
O201       Mn204   2.065       .  S
Mn204       O211   1.938       .  S
C206       C1720   1.490       .  S
O208        C213   1.253       .  A
Mn209       O212   2.088       .  S
O211        C213   1.212       .  S
C213       C1752   1.487       .  S
C214        N215   1.349       .  A
C214        N219   1.350   1_556  A
C214       C1688   1.480       .  S
N215        C216   1.352   1_556  A
C216        N217   1.365       .  A
C216        C562   1.470       .  S
N217        C218   1.367       .  A
C218        N219   1.356       .  A
C218       C1816   1.468       .  S
C220        N221   1.353       .  A
C220        N225   1.355   1_554  A
C220       C1803   1.488       .  S
N221        C222   1.350   1_554  A
C222        N223   1.368       .  A
C222        C539   1.485       .  S
N223        C224   1.375       .  A
C224        N225   1.360       .  A
C224       C1672   1.498       .  S
C226        N227   1.372       .  A
C226        N231   1.370       .  A
C226       C1656   1.534       .  S
N227        C228   1.370       .  A
C228        N229   1.369   1_655  A
C228        C507   1.513       .  S
N229        C230   1.370   1_455  A
C230        N231   1.369       .  A
C230       C2184   1.509   1_655  S
C232        N233   1.350       .  A
C232        N237   1.352   1_455  A
C232       C2200   1.477       .  S
N233        C234   1.346   1_455  A
C234        N235   1.357       .  A
C234        C551   1.458       .  S
N235        C236   1.361       .  A
C236        N237   1.351       .  A
C236       C1640   1.457       .  S
O238        C265   1.264       .  A
O238       Mn264   2.072       .  S
C239       C1544   1.477       .  S
C239        O272   1.256       .  A
C239        O269   1.274       .  A
O240       Mn247   2.174       .  S
O240       Mn258   2.100       .  S
O240       Mn262   2.174       .  S
O240       Mn264   2.094       .  S
O241        C251   1.271       .  A
O241       Mn275   2.087       .  S
O242        C265   1.267       .  A
O242       Mn258   2.079       .  S
O243        C270   1.265       .  A
O243       Mn262   2.175       .  S
O244       Mn275   1.932       .  S
O244       Mn264   1.928       .  S
O244        C260   1.210       .  S
C245       C1624   1.522       .  S
C245        O248   1.269       .  A
C245        O271   1.219       .  S
O246       Mn266   2.113       .  S
O246       Mn247   2.175       .  S
O246       Mn280   2.102       .  S
O246       Mn262   2.176       .  S
Mn247       O276   2.189       .  S
Mn247       O252   2.174       .  S
Mn247       O279   2.172       .  S
Mn247       O253   2.176       .  S
O248       Mn262   2.173       .  S
O249        C251   1.274       .  A
O249       Mn256   2.091       .  S
C250       C1560   1.527       .  S
C250        O276   1.266       .  A
C250        O263   1.215       .  S
C251       C1691   1.484       .  S
O252        C277   1.267       .  A
O253       Mn256   2.093       .  S
O253       Mn275   2.099       .  S
O253       Mn262   2.168       .  S
O254       Mn258   1.928       .  S
O254       Mn280   1.945       .  S
O254        C277   1.214       .  S
C255       C1608   1.444       .  S
C255        O281   1.267       .  A
C255        O257   1.263       .  A
Mn256       O269   2.106       .  S
Mn256       O271   1.969       .  S
Mn256       O263   1.957       .  S
O257       Mn280   2.053       .  S
Mn258       O274   2.057       .  S
Mn258       O268   1.953       .  S
O259        C261   1.271       .  A
O259       Mn264   2.085       .  S
C260       C1675   1.505       .  S
C260        O278   1.267       .  A
C261       C1515   1.468       .  S
C261        O274   1.265       .  A
Mn262       O278   2.182       .  S
O263       Mn266   1.941       .  S
Mn264       O282   1.972       .  S
C265       C1643   1.451       .  S
Mn266       O273   2.094       .  S
Mn266       O281   2.078       .  S
Mn266       O271   1.964       .  S
C267       C1576   1.486       .  S
C267        O273   1.274       .  A
C267        O283   1.266       .  A
O268       Mn280   1.959       .  S
O268        C270   1.217       .  S
C270       C1659   1.521       .  S
O272       Mn275   2.038       .  S
Mn275       O282   1.966       .  S
C277       C1595   1.511       .  S
O279        C284   1.266       .  A
Mn280       O283   2.068       .  S
O282        C284   1.221       .  S
C284       C1528   1.529       .  S
C285        N286   1.355       .  A
C285        N290   1.347   1_556  A
C285       C1499   1.487       .  S
N286        C287   1.352   1_556  A
C287        N288   1.371       .  A
C287        C527   1.489       .  S
N288        C289   1.375       .  A
C289        N290   1.352       .  A
C289       C1995   1.475       .  S
C291        N292   1.356   1_554  A
C291        N296   1.346       .  A
C291       C2011   1.481       .  S
N292        C293   1.359       .  A
C293        N294   1.367       .  A
C293       C1480   1.480       .  S
N294        C295   1.360       .  A
C295        N296   1.346   1_556  A
C295        C596   1.464       .  S
C297        N298   1.361       .  A
C297        N302   1.369       .  A
C297       C1464   1.476   1_545  S
N298        C299   1.356       .  A
C299        N300   1.353       .  A
C299       C2168   1.496       .  S
N300        C301   1.349       .  A
C301        N302   1.362       .  A
C301        C482   1.477       .  S
C303        N304   1.353       .  A
C303        N308   1.356       .  A
C303       C1448   1.490       .  S
N304        C305   1.357       .  A
C305        N306   1.377       .  A
C305       C2155   1.492       .  S
N306        C307   1.372       .  A
C307        N308   1.354       .  A
C307        C584   1.496       .  S
O309        C336   1.266       .  A
O309       Mn335   2.077       .  S
C310       C1496   1.480       .  S
C310        O343   1.271       .  A
C310        O340   1.263       .  A
O311       Mn318   2.176       .  S
O311       Mn329   2.103       .  S
O311       Mn333   2.175       .  S
O311       Mn335   2.093       .  S
O312        C322   1.269       .  A
O312       Mn346   2.085       .  S
O313        C336   1.272       .  A
O313       Mn329   2.083       .  S
O314        C341   1.253       .  A
O314       Mn333   2.107       .  S
O315       Mn346   1.989       .  S
O315       Mn335   1.995       .  S
O315        C331   1.226       .  A
C316       C1320   1.486       .  S
C316        O319   1.253       .  A
C316        O342   1.210       .  S
O317       Mn337   2.093       .  S
O317       Mn318   2.168       .  S
O317       Mn351   2.107       .  S
O317       Mn333   2.183       .  S
Mn318       O347   2.133       .  S
Mn318       O323   2.137       .  S
Mn318       O350   2.133       .  S
Mn318       O324   2.178       .  S
O319       Mn333   2.133       .  S
O320        C322   1.272       .  A
O320       Mn327   2.097       .  S
C321       C1416   1.479       .  S
C321        O347   1.258       .  A
C321        O334   1.231       .  A
C322       C1339   1.478       .  S
O323        C348   1.258       .  A
O324       Mn327   2.089       .  S
O324       Mn346   2.090       .  S
O324       Mn333   2.165       .  S
O325       Mn329   1.955       .  S
O325       Mn351   1.951       .  S
O325        C348   1.214       .  S
C326       C1403   1.475       .  S
C326        O352   1.261       .  A
C326        O328   1.272       .  A
Mn327       O340   2.060       .  S
Mn327       O334   1.999       .  S
Mn327       O342   1.963       .  S
O328       Mn351   2.109       .  S
Mn329       O345   2.107       .  S
Mn329       O339   1.951       .  S
O330        C332   1.261       .  A
O330       Mn335   2.060       .  S
C331       C1352   1.482       .  S
C331        O349   1.258       .  A
C332       C1451   1.476       .  S
C332        O345   1.271       .  A
Mn333       O349   2.150       .  S
O334       Mn337   1.999       .  S
Mn335       O353   1.951       .  S
C336       C1368   1.487       .  S
Mn337       O344   2.081       .  S
Mn337       O352   2.058       .  S
Mn337       O342   1.956       .  S
C338       C1435   1.489       .  S
C338        O344   1.267       .  A
C338        O354   1.273       .  A
O339       Mn351   1.953       .  S
O339        C341   1.217       .  S
C341       C1384   1.482       .  S
O343       Mn346   2.080       .  S
Mn346       O353   1.968       .  S
C348       C1467   1.496       .  S
O350        C355   1.255       .  A
Mn351       O354   2.083       .  S
O353        C355   1.211       .  S
C355       C1483   1.489       .  S
C356        N357   1.355       .  A
C356        N361   1.347       .  A
C356       C1307   1.449       .  S
N357        C358   1.353       .  A
C358        N359   1.354       .  A
C358        C517   1.456       .  S
N359        C360   1.360   1_655  A
C360        N361   1.347   1_455  A
C360       C1976   1.477       .  S
C362        N363   1.364       .  A
C362        N367   1.370       .  A
C362       C1291   1.502       .  S
N363        C364   1.365   1_655  A
C364        N365   1.374       .  A
C364       C1963   1.509       .  S
N365        C366   1.369   1_455  A
C366        N367   1.366       .  A
C366        C471   1.515       .  S
C368        N369   1.354       .  A
C368        N373   1.352       .  A
C368       C1272   1.486       .  S
N369        C370   1.356       .  A
C370        N371   1.363       .  A
C370       C1784   1.462       .  S
N371        C372   1.358       .  A
C372        N373   1.354       .  A
C372        C494   1.468       .  S
C374        N375   1.357       .  A
C374        N379   1.371       .  A
C374       C1256   1.484   1_545  S
N375        C376   1.352       .  A
C376        N377   1.357       .  A
C376       C1771   1.488       .  S
N377        C378   1.354       .  A
C378        N379   1.364       .  A
C378        C572   1.482       .  S
O380        C407   1.261       .  A
O380       Mn406   2.058       .  S
C381       C1304   1.440       .  S
C381        O414   1.260       .  A
C381        O411   1.266       .  A
O382       Mn389   2.180       .  S
O382       Mn400   2.087       .  S
O382       Mn404   2.190       .  S
O382       Mn406   2.091       .  S
O383        C393   1.264       .  A
O383       Mn417   2.063       .  S
O384        C407   1.272       .  A
O384       Mn400   2.092       .  S
O385        C412   1.269       .  A
O385       Mn404   2.203       .  S
O386       Mn417   1.993       .  S
O386       Mn406   1.992       .  S
O386        C402   1.230       .  A
C387       C1208   1.540       .  S
C387        O390   1.269       .  A
C387        O413   1.225       .  S
O388       Mn408   2.099       .  S
O388       Mn389   2.166       .  S
O388       Mn422   2.099       .  S
O388       Mn404   2.174       .  S
Mn389       O418   2.165       .  S
Mn389       O394   2.170       .  S
Mn389       O421   2.183       .  S
Mn389       O395   2.176       .  S
O390       Mn404   2.186       .  S
O391        C393   1.273       .  A
O391       Mn398   2.087       .  S
C392       C1288   1.534       .  S
C392        O418   1.268       .  A
C392        O405   1.228       .  S
C393       C1128   1.484       .  S
O394        C419   1.266       .  A
O395       Mn398   2.117       .  S
O395       Mn417   2.094       .  S
O395       Mn404   2.185       .  S
O396       Mn400   1.995       .  S
O396       Mn422   1.996       .  S
O396        C419   1.233       .  A
C397       C1192   1.474       .  S
C397        O423   1.266       .  A
C397        O399   1.261       .  A
Mn398       O411   2.080       .  S
Mn398       O413   1.951       .  S
Mn398       O405   1.977       .  S
O399       Mn422   2.043       .  S
Mn400       O416   2.085       .  S
Mn400       O410   1.975       .  S
O401        C403   1.269       .  A
O401       Mn406   2.088       .  S
C402       C1147   1.498       .  S
C402        O420   1.266       .  A
C403       C1227   1.461       .  S
C403        O416   1.268       .  A
Mn404       O420   2.176       .  S
O405       Mn408   1.977       .  S
Mn406       O424   1.962       .  S
C407       C1160   1.478       .  S
Mn408       O415   2.090       .  S
Mn408       O423   2.086       .  S
Mn408       O413   1.967       .  S
C409       C1275   1.485       .  S
C409        O415   1.273       .  A
C409        O425   1.268       .  A
O410       Mn422   1.975       .  S
O410        C412   1.214       .  S
C412       C1176   1.535       .  S
O414       Mn417   2.038       .  S
Mn417       O424   1.963       .  S
C419       C1259   1.492       .  S
O421        C426   1.264       .  A
Mn422       O425   2.077       .  S
O424        C426   1.214       .  S
C426       C1243   1.519       .  S
C427        N428   1.351       .  A
C427        N432   1.362       .  A
C427       C1224   1.460       .  S
N428        C429   1.350   1_554  A
C429        N430   1.351       .  A
C429       C1112   1.449       .  S
N430        C431   1.349   1_556  A
C431        N432   1.358       .  A
C431        C597   1.457   1_554  S
C433        N434   1.367   1_556  A
C433        N438   1.370       .  A
C433       C1096   1.505       .  S
N434        C435   1.367       .  A
C435        N436   1.372       .  A
C435       C1240   1.524       .  S
N436        C437   1.370       .  A
C437        N438   1.368   1_554  A
C437        C538   1.512   1_554  S
C439        N440   1.355       .  A
C439        N444   1.348       .  A
C439       C1611   1.451       .  S
N440        C441   1.353       .  A
C441        N442   1.357       .  A
C441        C493   1.458       .  S
N442        C443   1.360       .  A
C443        N444   1.349       .  A
C443       C1080   1.467   1_545  S
C445        N446   1.366       .  A
C445        N450   1.366       .  A
C445       C1627   1.502       .  S
N446        C447   1.361       .  A
C447        N448   1.374       .  A
C447        C583   1.512       .  S
N448        C449   1.377       .  A
C449        N450   1.369       .  A
C449       C1064   1.526   1_545  S
C451        N452   1.355       .  A
C451        N456   1.349       .  A
C451       C1432   1.487   1_655  S
N452        C453   1.359       .  A
C453        N454   1.379       .  A
C453       C1048   1.498       .  S
N454        C455   1.374       .  A
C455        N456   1.349       .  A
C455        C472   1.491       .  S
C457        N458   1.351       .  A
C457        N462   1.353       .  A
C457       C1032   1.487       .  S
N458        C459   1.357   1_655  A
C459        N460   1.366       .  A
C459       C1419   1.463       .  S
N460        C461   1.362   1_455  A
C461        N462   1.347       .  A
C461        C552   1.468       .  S
N463        N464   1.329       .  A
N463        N469   1.316       .  A
N463       Mn492   2.245   1_565  S
N464        C471   1.360       .  A
N465        N467   1.314       .  A
N465        N466   1.321       .  A
N465       Mn481   2.235   1_665  S
N466        C472   1.359       .  A
N467        N468   1.330       .  A
N467       Mn492   2.206   1_565  S
N468        C472   1.354       .  A
N469        N470   1.332   1_655  A
N469       Mn481   2.259   1_665  S
N470        C471   1.363   1_455  A
N473        N479   1.320       .  A
N473        N474   1.316       .  A
N473       Mn503   2.209       .  S
N474        C482   1.351       .  A
N475        N476   1.319       .  A
N475        N477   1.319       .  A
N475       Mn481   2.215       .  S
N476        C483   1.352       .  A
N477        N478   1.324       .  A
N477       Mn503   2.202       .  S
N478        C483   1.349       .  A
N479        N480   1.329       .  A
N479       Mn481   2.233       .  S
N480        C482   1.356       .  A
Mn481      Cl505   2.554   1_455  S
N484        N485   1.319       .  A
N484        N490   1.319       .  A
N484       Mn492   2.198       .  S
N485        C493   1.348       .  A
N486        N488   1.318       .  A
N486        N487   1.328       .  A
N486       Mn504   2.232       .  S
N487        C494   1.357       .  A
N488        N489   1.314       .  A
N488       Mn492   2.183       .  S
N489        C494   1.347       .  A
N490        N491   1.320       .  A
N490       Mn504   2.201       .  S
N491        C493   1.350       .  A
Mn492      Cl505   2.553       .  S
N495        N496   1.330       .  A
N495        N501   1.315   1_455  A
N495       Mn503   2.221       .  S
N496        C506   1.356   1_455  A
N497        N498   1.330       .  A
N497        N499   1.316       .  A
N497       Mn504   2.249       .  S
N498        C507   1.361       .  A
N499        N500   1.331   1_655  A
N499       Mn503   2.251   1_655  S
N500        C507   1.362   1_455  A
N501        N502   1.319       .  A
N501       Mn504   2.217       .  S
N502        C506   1.355       .  A
Mn503      Cl505   2.555   1_455  S
Mn504      Cl505   2.556       .  S
N508        N509   1.325       .  A
N508        N514   1.319       .  A
N508       Mn537   2.226       .  S
N509        C516   1.355       .  A
N510        N512   1.319       .  A
N510        N511   1.321       .  A
N510       Mn526   2.212   1_655  S
N511        C517   1.350       .  A
N512        N513   1.318       .  A
N512       Mn537   2.179       .  S
N513        C517   1.346       .  A
N514        N515   1.319       .  A
N514       Mn526   2.204   1_655  S
N515        C516   1.351       .  A
N518        N524   1.314   1_556  A
N518        N519   1.321       .  A
N518       Mn548   2.222       .  S
N519        C527   1.356   1_556  A
N520        N521   1.331       .  A
N520        N522   1.316   1_554  A
N520       Mn526   2.263       .  S
N521        C528   1.364   1_554  A
N522        N523   1.331       .  A
N522       Mn548   2.240       .  S
N523        C528   1.359       .  A
N524        N525   1.330       .  A
N524       Mn526   2.218       .  S
N525        C527   1.355       .  A
Mn526      Cl550   2.553   1_454  S
N529        N530   1.330       .  A
N529        N535   1.315   1_554  A
N529       Mn537   2.249       .  S
N530        C538   1.360   1_554  A
N531        N533   1.315   1_556  A
N531        N532   1.330       .  A
N531       Mn549   2.226       .  S
N532        C539   1.356       .  A
N533        N534   1.319       .  A
N533       Mn537   2.209       .  S
N534        C539   1.354   1_554  A
N535        N536   1.331       .  A
N535       Mn549   2.246       .  S
N536        C538   1.362       .  A
Mn537      Cl550   2.550   1_554  S
N540        N541   1.318   1_655  A
N540        N546   1.319       .  A
N540       Mn548   2.205   1_655  S
N541        C551   1.351   1_455  A
N542        N543   1.318       .  A
N542        N544   1.318       .  A
N542       Mn549   2.211       .  S
N543        C552   1.353       .  A
N544        N545   1.325   1_655  A
N544       Mn548   2.207   1_655  S
N545        C552   1.350   1_455  A
N546        N547   1.321       .  A
N546       Mn549   2.192       .  S
N547        C551   1.346       .  A
Mn548      Cl550   2.550   1_455  S
Mn549      Cl550   2.556       .  S
N553        N554   1.318       .  A
N553        N559   1.318   1_556  A
N553       Mn582   2.208       .  S
N554        C561   1.350   1_556  A
N555        N557   1.319   1_554  A
N555        N556   1.326       .  A
N555       Mn571   2.214       .  S
N556        C562   1.353       .  A
N557        N558   1.316       .  A
N557       Mn582   2.208       .  S
N558        C562   1.351   1_556  A
N559        N560   1.318       .  A
N559       Mn571   2.176       .  S
N560        C561   1.346       .  A
N563        N569   1.314       .  A
N563        N564   1.329       .  A
N563       Mn593   2.227       .  S
N564        C572   1.358       .  A
N565        N566   1.328       .  A
N565        N567   1.315       .  A
N565       Mn571   2.240       .  S
N566        C573   1.359       .  A
N567        N568   1.329       .  A
N567       Mn593   2.243       .  S
N568        C573   1.361       .  A
N569        N570   1.318       .  A
N569       Mn571   2.196       .  S
N570        C572   1.351       .  A
Mn571      Cl595   2.556   1_554  S
N574        N575   1.331       .  A
N574        N580   1.315       .  A
N574       Mn582   2.265       .  S
N575        C583   1.365       .  A
N576        N578   1.315       .  A
N576        N577   1.321       .  A
N576       Mn594   2.225       .  S
N577        C584   1.356       .  A
N578        N579   1.332       .  A
N578       Mn582   2.234       .  S
N579        C584   1.359       .  A
N580        N581   1.329       .  A
N580       Mn594   2.226       .  S
N581        C583   1.356       .  A
Mn582      Cl595   2.545       .  S
N585        N586   1.315       .  A
N585        N591   1.318   1_554  A
N585       Mn593   2.208   1_565  S
N586        C596   1.351   1_554  A
N587        N588   1.318       .  A
N587        N589   1.319   1_556  A
N587       Mn594   2.198   1_565  S
N588        C597   1.349       .  A
N589        N590   1.321       .  A
N589       Mn593   2.190   1_565  S
N590        C597   1.346   1_554  A
N591        N592   1.325       .  A
N591       Mn594   2.201   1_565  S
N592        C596   1.351       .  A
Mn593      Cl595   2.548   1_554  S
Mn594      Cl595   2.553       .  S
O598        C625   1.266       .  A
O598       Mn624   2.079       .  S
C599       C1115   1.440       .  S
C599        O632   1.266       .  A
C599        O629   1.259       .  A
O600       Mn607   2.178       .  S
O600       Mn618   2.102       .  S
O600       Mn622   2.180       .  S
O600       Mn624   2.109       .  S
O601        C611   1.272       .  A
O601       Mn635   2.084       .  S
O602        C625   1.263       .  A
O602       Mn618   2.051       .  S
O603        C630   1.265       .  A
O603       Mn622   2.187       .  S
O604       Mn635   1.951       .  S
O604       Mn624   1.944       .  S
O604        C620   1.215       .  S
C605        C968   1.497       .  S
C605        O608   1.268       .  A
C605        O631   1.235       .  A
O606       Mn626   2.094       .  S
O606       Mn607   2.169       .  S
O606       Mn640   2.102       .  S
O606       Mn622   2.178       .  S
Mn607       O636   2.186       .  S
Mn607       O612   2.179       .  S
Mn607       O639   2.166       .  S
Mn607       O613   2.184       .  S
O608       Mn622   2.172       .  S
O609        C611   1.268       .  A
O609       Mn616   2.081       .  S
C610       C1067   1.529       .  S
C610        O636   1.267       .  A
C610        O623   1.217       .  S
C611        C984   1.484       .  S
O612        C637   1.268       .  A
O613       Mn616   2.109       .  S
O613       Mn635   2.104       .  S
O613       Mn622   2.182       .  S
O614       Mn618   1.947       .  S
O614       Mn640   1.931       .  S
O614        C637   1.213       .  S
C615       C1016   1.458       .  S
C615        O641   1.263       .  A
C615        O617   1.270       .  A
Mn616       O629   2.041       .  S
Mn616       O631   1.997       .  S
Mn616       O623   1.968       .  S
O617       Mn640   2.087       .  S
Mn618       O634   2.093       .  S
Mn618       O628   1.956       .  S
O619        C621   1.264       .  A
O619       Mn624   2.061       .  S
C620        C936   1.521       .  S
C620        O638   1.267       .  A
C621       C1035   1.485       .  S
C621        O634   1.274       .  A
Mn622       O638   2.177       .  S
O623       Mn626   1.978       .  S
Mn624       O642   1.950       .  S
C625        C952   1.444       .  S
Mn626       O633   2.088       .  S
Mn626       O641   2.049       .  S
Mn626       O631   2.001       .  S
C627       C1083   1.461       .  S
C627        O633   1.273       .  A
C627        O643   1.260       .  A
O628       Mn640   1.944       .  S
O628        C630   1.216       .  S
C630       C1000   1.527       .  S
O632       Mn635   2.079       .  S
Mn635       O642   1.956       .  S
C637       C1051   1.515       .  S
O639        C644   1.266       .  A
Mn640       O643   2.051       .  S
O642        C644   1.220       .  S
C644       C1099   1.518       .  S
C645        N646   1.355       .  A
C645        N650   1.363       .  A
C645       C1387   1.459       .  S
N646        C647   1.352       .  A
C647        N648   1.352       .  A
C647       C1947   1.477       .  S
N648        C649   1.352       .  A
C649        N650   1.356       .  A
C649        C862   1.465       .  S
C651        N652   1.353       .  A
C651        N656   1.357       .  A
C651       C1400   1.489       .  S
N652        C653   1.359       .  A
C653        N654   1.372       .  A
C653       C1931   1.491       .  S
N654        C655   1.366       .  A
C655        N656   1.355       .  A
C655        C796   1.485       .  S
C657        N658   1.354       .  A
C657        N662   1.350       .  A
C657       C1739   1.484       .  S
N658        C659   1.359       .  A
C659        N660   1.379       .  A
C659       C1592   1.494       .  S
N660        C661   1.372       .  A
C661        N662   1.349       .  A
C661        C762   1.490       .  S
C663        N664   1.349       .  A
C663        N668   1.355       .  A
C663       C1579   1.480       .  S
N664        C665   1.349       .  A
C665        N666   1.356       .  A
C665        C874   1.463       .  S
N666        C667   1.363       .  A
C667        N668   1.356       .  A
C667       C1755   1.466       .  S
C669        N670   1.352       .  A
C669        N674   1.351       .  A
C669       C1195   1.475       .  S
N670        C671   1.351       .  A
C671        N672   1.355       .  A
C671       C1019   1.463       .  S
N672        C673   1.350       .  A
C673        N674   1.347       .  A
C673        C873   1.449       .  S
C675        N676   1.371       .  A
C675        N680   1.369       .  A
C675       C1003   1.519       .  S
N676        C677   1.368       .  A
C677        N678   1.371       .  A
C677        C797   1.518       .  S
N678        C679   1.374       .  A
C679        N680   1.369       .  A
C679       C1211   1.513       .  S
C681        N682   1.361       .  A
C681        N686   1.350       .  A
C681       C2139   1.456       .  S
N682        C683   1.356       .  A
C683        N684   1.352       .  A
C683        C807   1.462       .  S
N684        C685   1.357       .  A
C685        N686   1.349       .  A
C685       C1547   1.480       .  S
C687        N688   1.372       .  A
C687        N692   1.366       .  A
C687       C1563   1.516       .  S
N688        C689   1.367       .  A
C689        N690   1.368       .  A
C689        C851   1.514       .  S
N690        C691   1.372       .  A
C691        N692   1.370       .  A
C691       C2123   1.528       .  S
C693        N694   1.365       .  A
C693        N698   1.371       .  A
C693       C1899   1.507       .  S
N694        C695   1.365       .  A
C695        N696   1.376       .  A
C695       C1179   1.517       .  S
N696        C697   1.374       .  A
C697        N698   1.367       .  A
C697        C887   1.524       .  S
C699        N700   1.353       .  A
C699        N704   1.349       .  A
C699       C1915   1.469       .  S
N700        C701   1.354       .  A
C701        N702   1.361       .  A
C701       C1163   1.475       .  S
N702        C703   1.350       .  A
C703        N704   1.343       .  A
C703        C841   1.451       .  S
C705        N706   1.359       .  A
C705        N710   1.368       .  A
C705       C1723   1.473       .  S
N706        C707   1.357       .  A
C707        N708   1.346       .  A
C707       C1131   1.483       .  S
N708        C709   1.346       .  A
C709        N710   1.360       .  A
C709        C783   1.470       .  S
C711        N712   1.357       .  A
C711        N716   1.376       .  A
C711       C1144   1.479       .  S
N712        C713   1.354       .  A
C713        N714   1.349       .  A
C713       C1707   1.490       .  S
N714        C715   1.349       .  A
C715        N716   1.369       .  A
C715        C829   1.486       .  S
C717        N718   1.349       .  A
C717        N722   1.354       .  A
C717        C987   1.481       .  S
N718        C719   1.351       .  A
C719        N720   1.362       .  A
C719        C842   1.469       .  S
N720        C721   1.367       .  A
C721        N722   1.357       .  A
C721       C1355   1.466       .  S
C723        N724   1.349       .  A
C723        N728   1.354       .  A
C723       C1371   1.481       .  S
N724        C725   1.348       .  A
C725        N726   1.368       .  A
C725        C852   1.483       .  S
N726        C727   1.376       .  A
C727        N728   1.360       .  A
C727        C971   1.495       .  S
C729        N730   1.348       .  A
C729        N734   1.356       .  A
C729        C955   1.450       .  S
N730        C731   1.350       .  A
C731        N732   1.354       .  A
C731       C1512   1.473       .  S
N732        C733   1.353       .  A
C733        N734   1.353       .  A
C733        C772   1.455       .  S
C735        N736   1.367       .  A
C735        N740   1.365       .  A
C735        C939   1.502       .  S
N736        C737   1.368       .  A
C737        N738   1.373       .  A
C737       C1531   1.515       .  S
N738        C739   1.371       .  A
C739        N740   1.363       .  A
C739        C828   1.504       .  S
C741        N742   1.361       .  A
C741        N746   1.374       .  A
C741       C2091   1.499       .  S
N742        C743   1.356       .  A
C743        N744   1.357       .  A
C743       C1336   1.488       .  S
N744        C745   1.356       .  A
C745        N746   1.367       .  A
C745        C817   1.490       .  S
C747        N748   1.365       .  A
C747        N752   1.356       .  A
C747       C1323   1.475       .  S
N748        C749   1.359       .  A
C749        N750   1.354       .  A
C749        C773   1.470       .  S
N750        C751   1.355       .  A
C751        N752   1.351       .  A
C751       C2104   1.472       .  S
N753        N754   1.332       .  A
N753        N759   1.315       .  A
N753       Mn782   2.240   1_455  S
N754        C761   1.359       .  A
N755        N757   1.314       .  A
N755        N756   1.330       .  A
N755       Mn771   2.211       .  S
N756        C762   1.354       .  A
N757        N758   1.321       .  A
N757       Mn782   2.232       .  S
N758        C762   1.359       .  A
N759        N760   1.328       .  A
N759       Mn771   2.254   1_455  S
N760        C761   1.363       .  A
N763        N769   1.319       .  A
N763        N764   1.319       .  A
N763       Mn793   2.184       .  S
N764        C772   1.347       .  A
N765        N766   1.316       .  A
N765        N767   1.318       .  A
N765       Mn771   2.192   1_455  S
N766        C773   1.348       .  A
N767        N768   1.327       .  A
N767       Mn793   2.231   1_455  S
N768        C773   1.356       .  A
N769        N770   1.318       .  A
N769       Mn771   2.204       .  S
N770        C772   1.349       .  A
Mn771      Cl795   2.547       .  S
N774        N775   1.329       .  A
N774        N780   1.319       .  A
N774       Mn782   2.222       .  S
N775        C783   1.355       .  A
N776        N778   1.320       .  A
N776        N777   1.320       .  A
N776       Mn794   2.192   1_455  S
N777        C784   1.346       .  A
N778        N779   1.320       .  A
N778       Mn782   2.208   1_455  S
N779        C784   1.351       .  A
N780        N781   1.314       .  A
N780       Mn794   2.200       .  S
N781        C783   1.349       .  A
Mn782      Cl795   2.555       .  S
N785        N786   1.320       .  A
N785        N791   1.314       .  A
N785       Mn793   2.204   1_455  S
N786        C796   1.353       .  A
N787        N788   1.332       .  A
N787        N789   1.315       .  A
N787       Mn794   2.250       .  S
N788        C797   1.362       .  A
N789        N790   1.331       .  A
N789       Mn793   2.257       .  S
N790        C797   1.362       .  A
N791        N792   1.329       .  A
N791       Mn794   2.228   1_455  S
N792        C796   1.357       .  A
Mn793      Cl795   2.556       .  S
Mn794      Cl795   2.549       .  S
N798        N799   1.326       .  A
N798        N804   1.318       .  A
N798       Mn827   2.201   1_554  S
N799        C806   1.351       .  A
N800        N802   1.319       .  A
N800        N801   1.323       .  A
N800       Mn816   2.204   1_556  S
N801        C807   1.350       .  A
N802        N803   1.317       .  A
N802       Mn827   2.197       .  S
N803        C807   1.349       .  A
N804        N805   1.316       .  A
N804       Mn816   2.215       .  S
N805        C806   1.353       .  A
N808        N814   1.315       .  A
N808        N809   1.320       .  A
N808       Mn838   2.206   1_556  S
N809        C817   1.353       .  A
N810        N811   1.331       .  A
N810        N812   1.316       .  A
N810       Mn816   2.257       .  S
N811        C818   1.363       .  A
N812        N813   1.331       .  A
N812       Mn838   2.251       .  S
N813        C818   1.361       .  A
N814        N815   1.331       .  A
N814       Mn816   2.236   1_556  S
N815        C817   1.359       .  A
Mn816      Cl840   2.549   1_554  S
N819        N820   1.327       .  A
N819        N825   1.315       .  A
N819       Mn827   2.224       .  S
N820        C828   1.356       .  A
N821        N823   1.314       .  A
N821        N822   1.330       .  A
N821       Mn839   2.215   1_554  S
N822        C829   1.355       .  A
N823        N824   1.319       .  A
N823       Mn827   2.219   1_554  S
N824        C829   1.356       .  A
N825        N826   1.329       .  A
N825       Mn839   2.251       .  S
N826        C828   1.363       .  A
Mn827      Cl840   2.551       .  S
N830        N831   1.317       .  A
N830        N836   1.318       .  A
N830       Mn838   2.185       .  S
N831        C841   1.347       .  A
N832        N833   1.315       .  A
N832        N834   1.318       .  A
N832       Mn839   2.199       .  S
N833        C842   1.350       .  A
N834        N835   1.327       .  A
N834       Mn838   2.223   1_556  S
N835        C842   1.355       .  A
N836        N837   1.319       .  A
N836       Mn839   2.194   1_554  S
N837        C841   1.347       .  A
Mn838      Cl840   2.555   1_554  S
Mn839      Cl840   2.550       .  S
N843        N844   1.331       .  A
N843        N849   1.316       .  A
N843       Mn872   2.249       .  S
N844        C851   1.362       .  A
N845        N847   1.314       .  A
N845        N846   1.319   1_545  A
N845       Mn861   2.215       .  S
N846        C852   1.355       .  A
N847        N848   1.329   1_545  A
N847       Mn872   2.213       .  S
N848        C852   1.355       .  A
N849        N850   1.330       .  A
N849       Mn861   2.254       .  S
N850        C851   1.361       .  A
N853        N859   1.319       .  A
N853        N854   1.314   1_545  A
N853       Mn883   2.186       .  S
N854        C862   1.346       .  A
N855        N856   1.319       .  A
N855        N857   1.319       .  A
N855       Mn861   2.189       .  S
N856        C863   1.347       .  A
N857        N858   1.319       .  A
N857       Mn883   2.203       .  S
N858        C863   1.349       .  A
N859        N860   1.327   1_545  A
N859       Mn861   2.231       .  S
N860        C862   1.357       .  A
Mn861      Cl885   2.553       .  S
N864        N865   1.318   1_545  A
N864        N870   1.319       .  A
N864       Mn872   2.190       .  S
N865        C873   1.346       .  A
N866        N868   1.319       .  A
N866        N867   1.326       .  A
N866       Mn884   2.223       .  S
N867        C874   1.355       .  A
N868        N869   1.314       .  A
N868       Mn872   2.187       .  S
N869        C874   1.347       .  A
N870        N871   1.317   1_545  A
N870       Mn884   2.189       .  S
N871        C873   1.348       .  A
Mn872      Cl885   2.554       .  S
N875        N876   1.331       .  A
N875        N881   1.314       .  A
N875       Mn883   2.217       .  S
N876        C886   1.356       .  A
N877        N878   1.333   1_545  A
N877        N879   1.315       .  A
N877       Mn884   2.256       .  S
N878        C887   1.362       .  A
N879        N880   1.332   1_545  A
N879       Mn883   2.263       .  S
N880        C887   1.364       .  A
N881        N882   1.319       .  A
N881       Mn884   2.216       .  S
N882        C886   1.355       .  A
Mn883      Cl885   2.551       .  S
Mn884      Cl885   2.553       .  S
O888        C915   1.259       .  A
O888       Mn914   2.045       .  S
C889       C2059   1.452       .  S
C889        O922   1.264       .  A
C889        O919   1.268       .  A
O890       Mn897   2.180       .  S
O890       Mn908   2.097       .  S
O890       Mn912   2.180       .  S
O890       Mn914   2.105       .  S
O891        C901   1.272       .  A
O891       Mn925   2.084       .  S
O892        C915   1.271       .  A
O892       Mn908   2.090       .  S
O893        C920   1.267       .  A
O893       Mn912   2.185       .  S
O894       Mn925   1.958       .  S
O894       Mn914   1.945       .  S
O894        C910   1.214       .  S
C895       C2331   1.499       .  S
C895        O898   1.267       .  A
C895        O921   1.233       .  A
O896       Mn916   2.088       .  S
O896       Mn897   2.175       .  S
O896       Mn930   2.115       .  S
O896       Mn912   2.176       .  S
Mn897       O926   2.191       .  S
Mn897       O902   2.170       .  S
Mn897       O929   2.184       .  S
Mn897       O903   2.170       .  S
O898       Mn912   2.173       .  S
O899        C901   1.261       .  A
O899       Mn906   2.058       .  S
C900       C2027   1.528       .  S
C900        O926   1.269       .  A
C900        O913   1.215       .  S
C901       C2443   1.474       .  S
O902        C927   1.268       .  A
O903       Mn906   2.112       .  S
O903       Mn925   2.079       .  S
O903       Mn912   2.186       .  S
O904       Mn908   1.958       .  S
O904       Mn930   1.949       .  S
O904        C927   1.218       .  S
C905       C2299   1.477       .  S
C905        O931   1.260       .  A
C905        O907   1.274       .  A
Mn906       O919   2.083       .  S
Mn906       O921   1.986       .  S
Mn906       O913   1.973       .  S
O907       Mn930   2.086       .  S
Mn908       O924   2.082       .  S
Mn908       O918   1.958       .  S
O909        C911   1.270       .  A
O909       Mn914   2.087       .  S
C910       C2411   1.527       .  S
C910        O928   1.265       .  A
C911       C1835   1.479       .  S
C911        O924   1.272       .  A
Mn912       O928   2.184       .  S
O913       Mn916   1.978       .  S
Mn914       O932   1.934       .  S
C915       C2376   1.477       .  S
Mn916       O923   2.044       .  S
Mn916       O931   2.051       .  S
Mn916       O921   1.996       .  S
C917       C2219   1.436       .  S
C917        O923   1.259       .  A
C917        O933   1.260       .  A
O918       Mn930   1.931       .  S
O918        C920   1.216       .  S
C920       C2347   1.526       .  S
O922       Mn925   2.068       .  S
Mn925       O932   1.938       .  S
C927       C2248   1.521       .  S
O929        C934   1.268       .  A
Mn930       O933   2.059       .  S
O932        C934   1.209       .  S
C934       C1867   1.500       .  S
C935        C936   1.411       .  A
C935        C940   1.421       .  A
C935        H942   1.084       .  S
C936        C937   1.433       .  A
C937        C938   1.409       .  A
C937        C944   1.512       .  S
C938        C939   1.398       .  A
C938        H943   1.085       .  S
C939        C940   1.419       .  A
C940        C941   1.505       .  S
C941        H945   1.110       .  S
C941        H946   1.108       .  S
C941        H947   1.110       .  S
C944        H948   1.110       .  S
C944        H949   1.110       .  S
C944        H950   1.111       .  S
C951        C952   1.401       .  A
C951        C956   1.400       .  A
C951        H958   1.084       .  S
C952        C953   1.406       .  A
C953        C954   1.390       .  A
C953        C960   1.509       .  S
C954        C955   1.400       .  A
C954        H959   1.085       .  S
C955        C956   1.407       .  A
C956        C957   1.505       .  S
C957        H961   1.110       .  S
C957        H962   1.110       .  S
C957        H963   1.111       .  S
C960        H964   1.110       .  S
C960        H965   1.110       .  S
C960        H966   1.111       .  S
C967        C968   1.415       .  A
C967        C972   1.397       .  A
C967        H974   1.083       .  S
C968        C969   1.406       .  A
C969        C970   1.417       .  A
C969        C976   1.504       .  S
C970        C971   1.419       .  A
C970        H975   1.083       .  S
C971        C972   1.409       .  A
C972        C973   1.510       .  S
C973        H977   1.111       .  S
C973        H978   1.110       .  S
C973        H979   1.110       .  S
C976        H980   1.111       .  S
C976        H981   1.110       .  S
C976        H982   1.110       .  S
C983        C984   1.406       .  A
C983        C988   1.396       .  A
C983        H990   1.085       .  S
C984        C985   1.417       .  A
C985        C986   1.404       .  A
C985        C992   1.509       .  S
C986        C987   1.407       .  A
C986        H991   1.084       .  S
C987        C988   1.416       .  A
C988        C989   1.511       .  S
C989        H993   1.109       .  S
C989        H994   1.110       .  S
C989        H995   1.108       .  S
C992        H996   1.110       .  S
C992        H997   1.110       .  S
C992        H998   1.111       .  S
C999       C1000   1.415       .  A
C999       C1004   1.412       .  A
C999       H1006   1.082       .  S
C1000      C1001   1.421       .  A
C1001      C1002   1.428       .  A
C1001      C1008   1.504       .  S
C1002      C1003   1.415       .  A
C1002      H1007   1.082       .  S
C1003      C1004   1.417       .  A
C1004      C1005   1.509       .  S
C1005      H1009   1.111       .  S
C1005      H1010   1.110       .  S
C1005      H1011   1.109       .  S
C1008      H1012   1.106       .  S
C1008      H1013   1.109       .  S
C1008      H1014   1.110       .  S
C1015      C1016   1.400       .  A
C1015      C1020   1.385       .  A
C1015      H1022   1.085       .  S
C1016      C1017   1.405       .  A
C1017      C1018   1.400       .  A
C1017      C1024   1.502       .  S
C1018      C1019   1.408       .  A
C1018      H1023   1.086       .  S
C1019      C1020   1.414       .  A
C1020      C1021   1.511       .  S
C1021      H1025   1.111       .  S
C1021      H1026   1.109       .  S
C1021      H1027   1.110       .  S
C1024      H1028   1.110       .  S
C1024      H1029   1.110       .  S
C1024      H1030   1.111       .  S
C1031      C1032   1.403       .  A
C1031      C1036   1.391       .  A
C1031      H1038   1.083       .  S
C1032      C1033   1.420       .  A
C1033      C1034   1.405       .  A
C1033      C1040   1.508       .  S
C1034      C1035   1.407       .  A
C1034      H1039   1.085       .  S
C1035      C1036   1.423       .  A
C1036      C1037   1.514       .  S
C1037      H1041   1.105       .  S
C1037      H1042   1.111       .  S
C1037      H1043   1.110       .  S
C1040      H1044   1.110       .  S
C1040      H1045   1.110       .  S
C1040      H1046   1.111       .  S
C1047      C1048   1.415       .  A
C1047      C1052   1.421       .  A
C1047      H1054   1.082       .  S
C1048      C1049   1.408       .  A
C1049      C1050   1.405       .  A
C1049      C1056   1.508       .  S
C1050      C1051   1.419       .  A
C1050      H1055   1.083       .  S
C1051      C1052   1.414       .  A
C1052      C1053   1.504       .  S
C1053      H1057   1.110       .  S
C1053      H1058   1.111       .  S
C1053      H1059   1.110       .  S
C1056      H1060   1.110       .  S
C1056      H1061   1.110       .  S
C1056      H1062   1.111       .  S
C1063      C1064   1.417       .  A
C1063      C1068   1.427       .  A
C1063      H1070   1.086       .  S
C1064      C1065   1.419       .  A
C1065      C1066   1.416       .  A
C1065      C1072   1.507       .  S
C1066      C1067   1.415       .  A
C1066      H1071   1.083       .  S
C1067      C1068   1.419       .  A
C1068      C1069   1.504       .  S
C1069      H1073   1.111       .  S
C1069      H1074   1.110       .  S
C1069      H1075   1.110       .  S
C1072      H1076   1.110       .  S
C1072      H1077   1.110       .  S
C1072      H1078   1.111       .  S
C1079      C1080   1.398       .  A
C1079      C1084   1.389       .  A
C1079      H1086   1.085       .  S
C1080      C1081   1.416       .  A
C1081      C1082   1.400       .  A
C1081      C1088   1.506       .  S
C1082      C1083   1.397       .  A
C1082      H1087   1.087       .  S
C1083      C1084   1.419       .  A
C1084      C1085   1.512       .  S
C1085      H1089   1.111       .  S
C1085      H1090   1.106       .  S
C1085      H1091   1.109       .  S
C1088      H1092   1.106   1_565  S
C1088      H1093   1.110       .  S
C1088      H1094   1.112       .  S
C1095      C1096   1.410       .  A
C1095      C1100   1.424       .  A
C1095      H1102   1.084       .  S
C1096      C1097   1.412       .  A
C1097      C1098   1.410       .  A
C1097      C1104   1.507       .  S
C1098      C1099   1.413       .  A
C1098      H1103   1.084       .  S
C1099      C1100   1.422       .  A
C1100      C1101   1.504       .  S
C1101      H1105   1.111       .  S
C1101      H1106   1.110       .  S
C1101      H1107   1.109       .  S
C1104      H1108   1.111       .  S
C1104      H1109   1.110       .  S
C1104      H1110   1.110       .  S
C1111      C1112   1.402       .  A
C1111      C1116   1.386       .  A
C1111      H1118   1.085       .  S
C1112      C1113   1.405       .  A
C1113      C1114   1.401       .  A
C1113      C1120   1.504       .  S
C1114      C1115   1.403       .  A
C1114      H1119   1.084       .  S
C1115      C1116   1.403       .  A
C1116      C1117   1.510       .  S
C1117      H1121   1.111       .  S
C1117      H1122   1.110       .  S
C1117      H1123   1.110       .  S
C1120      H1124   1.110       .  S
C1120      H1125   1.111       .  S
C1120      H1126   1.111       .  S
C1127      C1128   1.403       .  A
C1127      C1132   1.392       .  A
C1127      H1134   1.083       .  S
C1128      C1129   1.420       .  A
C1129      C1130   1.403       .  A
C1129      C1136   1.510       .  S
C1130      C1131   1.406       .  A
C1130      H1135   1.083       .  S
C1131      C1132   1.420       .  A
C1132      C1133   1.511       .  S
C1133      H1137   1.110       .  S
C1133      H1138   1.109       .  S
C1133      H1139   1.109       .  S
C1136      H1140   1.110       .  S
C1136      H1141   1.110       .  S
C1136      H1142   1.111       .  S
C1143      C1144   1.390       .  A
C1143      C1148   1.398       .  A
C1143      H1150   1.086       .  S
C1144      C1145   1.416       .  A
C1145      C1146   1.414       .  A
C1145      C1152   1.503       .  S
C1146      C1147   1.405       .  A
C1146      H1151   1.083       .  S
C1147      C1148   1.436       .  A
C1148      C1149   1.516       .  S
C1149      H1153   1.111       .  S
C1149      H1154   1.111       .  S
C1149      H1155   1.109       .  S
C1152      H1156   1.110       .  S
C1152      H1157   1.109       .  S
C1152      H1158   1.111       .  S
C1159      C1160   1.404       .  A
C1159      C1164   1.401       .  A
C1159      H1166   1.085       .  S
C1160      C1161   1.426       .  A
C1161      C1162   1.387       .  A
C1161      C1168   1.512       .  S
C1162      C1163   1.396       .  A
C1162      H1167   1.083       .  S
C1163      C1164   1.416       .  A
C1164      C1165   1.507       .  S
C1165      H1169   1.111       .  S
C1165      H1170   1.108       .  S
C1165      H1171   1.110       .  S
C1168      H1172   1.106       .  S
C1168      H1173   1.100       .  S
C1168      H1174   1.111       .  S
C1175      C1176   1.414       .  A
C1175      C1180   1.430       .  A
C1175      H1182   1.083       .  S
C1176      C1177   1.435       .  A
C1177      C1178   1.416       .  A
C1177      C1184   1.510       .  S
C1178      C1179   1.398       .  A
C1178      H1183   1.084       .  S
C1179      C1180   1.421       .  A
C1180      C1181   1.503       .  S
C1181      H1185   1.111       .  S
C1181      H1186   1.110       .  S
C1181      H1187   1.110       .  S
C1184      H1188   1.110       .  S
C1184      H1189   1.109       .  S
C1184      H1190   1.111       .  S
C1191      C1192   1.407       .  A
C1191      C1196   1.387       .  A
C1191      H1198   1.084       .  S
C1192      C1193   1.412       .  A
C1193      C1194   1.398       .  A
C1193      C1200   1.507       .  S
C1194      C1195   1.409       .  A
C1194      H1199   1.084       .  S
C1195      C1196   1.413       .  A
C1196      C1197   1.508       .  S
C1197      H1201   1.110       .  S
C1197      H1202   1.110       .  S
C1197      H1203   1.108       .  S
C1200      H1204   1.110       .  S
C1200      H1205   1.111       .  S
C1200      H1206   1.109       .  S
C1207      C1208   1.416       .  A
C1207      C1212   1.433       .  A
C1207      H1214   1.083       .  S
C1208      C1209   1.429       .  A
C1209      C1210   1.409       .  A
C1209      C1216   1.489       .  S
C1210      C1211   1.392       .  A
C1210      H1215   1.084       .  S
C1211      C1212   1.422       .  A
C1212      C1213   1.502       .  S
C1213      H1217   1.111       .  S
C1213      H1218   1.110       .  S
C1213      H1219   1.108       .  S
C1216      H1220   1.108       .  S
C1216      H1221   1.094       .  S
C1216      H1222   1.111       .  S
C1223      C1224   1.397       .  A
C1223      C1228   1.391       .  A
C1223      H1230   1.085       .  S
C1224      C1225   1.411       .  A
C1225      C1226   1.406       .  A
C1225      C1232   1.505       .  S
C1226      C1227   1.403       .  A
C1226      H1231   1.084       .  S
C1227      C1228   1.409       .  A
C1228      C1229   1.503       .  S
C1229      H1233   1.111       .  S
C1229      H1234   1.109       .  S
C1229      H1235   1.108       .  S
C1232      H1236   1.110       .  S
C1232      H1237   1.110       .  S
C1232      H1238   1.111       .  S
C1239      C1240   1.417       .  A
C1239      C1244   1.426       .  A
C1239      H1246   1.083       .  S
C1240      C1241   1.421       .  A
C1241      C1242   1.413       .  A
C1241      C1248   1.508       .  S
C1242      C1243   1.411       .  A
C1242      H1247   1.084       .  S
C1243      C1244   1.417       .  A
C1244      C1245   1.504       .  S
C1245      H1249   1.110       .  S
C1245      H1250   1.111       .  S
C1245      H1251   1.110       .  S
C1248      H1252   1.110       .  S
C1248      H1253   1.110       .  S
C1248      H1254   1.111       .  S
C1255      C1256   1.416       .  A
C1255      C1260   1.415       .  A
C1255      H1262   1.082       .  S
C1256      C1257   1.407       .  A
C1257      C1258   1.393       .  A
C1257      C1264   1.511       .  S
C1258      C1259   1.416       .  A
C1258      H1263   1.081       .  S
C1259      C1260   1.406       .  A
C1260      C1261   1.503       .  S
C1261      H1265   1.110       .  S
C1261      H1266   1.110       .  S
C1261      H1267   1.110       .  S
C1264      H1268   1.110       .  S
C1264      H1269   1.110       .  S
C1264      H1270   1.111       .  S
C1271      C1272   1.409       .  A
C1271      C1276   1.405   1_545  A
C1271      H1278   1.085       .  S
C1272      C1273   1.417   1_545  A
C1273      C1274   1.395       .  A
C1273      C1280   1.510       .  S
C1274      C1275   1.405       .  A
C1274      H1279   1.084       .  S
C1275      C1276   1.417       .  A
C1276      C1277   1.509       .  S
C1277      H1281   1.111   1_565  S
C1277      H1282   1.110       .  S
C1277      H1283   1.109       .  S
C1280      H1284   1.108       .  S
C1280      H1285   1.108       .  S
C1280      H1286   1.110       .  S
C1287      C1288   1.416       .  A
C1287      C1292   1.428       .  A
C1287      H1294   1.084       .  S
C1288      C1289   1.429       .  A
C1289      C1290   1.402       .  A
C1289      C1296   1.488       .  S
C1290      C1291   1.390       .  A
C1290      H1295   1.086       .  S
C1291      C1292   1.418       .  A
C1292      C1293   1.502       .  S
C1293      H1297   1.111       .  S
C1293      H1298   1.110       .  S
C1293      H1299   1.110       .  S
C1296      H1300   1.110       .  S
C1296      H1301   1.109       .  S
C1296      H1302   1.111       .  S
C1303      C1304   1.401       .  A
C1303      C1308   1.398       .  A
C1303      H1310   1.086       .  S
C1304      C1305   1.406       .  A
C1305      C1306   1.389       .  A
C1305      C1312   1.509       .  S
C1306      C1307   1.400       .  A
C1306      H1311   1.086       .  S
C1307      C1308   1.409       .  A
C1308      C1309   1.506       .  S
C1309      H1313   1.111       .  S
C1309      H1314   1.110       .  S
C1309      H1315   1.109       .  S
C1312      H1316   1.110       .  S
C1312      H1317   1.110       .  S
C1312      H1318   1.111       .  S
C1319      C1320   1.409       .  A
C1319      C1324   1.393       .  A
C1319      H1326   1.084       .  S
C1320      C1321   1.411       .  A
C1321      C1322   1.409       .  A
C1321      C1328   1.505       .  S
C1322      C1323   1.410       .  A
C1322      H1327   1.085       .  S
C1323      C1324   1.409       .  A
C1324      C1325   1.511       .  S
C1325      H1329   1.111       .  S
C1325      H1330   1.110       .  S
C1325      H1331   1.110       .  S
C1328      H1332   1.110       .  S
C1328      H1333   1.110       .  S
C1328      H1334   1.111       .  S
C1335      C1336   1.403       .  A
C1335      C1340   1.397       .  A
C1335      H1342   1.083       .  S
C1336      C1337   1.420       .  A
C1337      C1338   1.411       .  A
C1337      C1344   1.506       .  S
C1338      C1339   1.404       .  A
C1338      H1343   1.083       .  S
C1339      C1340   1.415       .  A
C1340      C1341   1.512       .  S
C1341      H1345   1.109       .  S
C1341      H1346   1.110       .  S
C1341      H1347   1.110       .  S
C1344      H1348   1.109       .  S
C1344      H1349   1.110       .  S
C1344      H1350   1.111       .  S
C1351      C1352   1.403       .  A
C1351      C1356   1.408       .  A
C1351      H1358   1.083       .  S
C1352      C1353   1.432       .  A
C1353      C1354   1.394       .  A
C1353      C1360   1.517       .  S
C1354      C1355   1.391       .  A
C1354      H1359   1.085       .  S
C1355      C1356   1.411       .  A
C1356      C1357   1.502       .  S
C1357      H1361   1.111       .  S
C1357      H1362   1.110       .  S
C1357      H1363   1.110       .  S
C1360      H1364   1.110       .  S
C1360      H1365   1.110       .  S
C1360      H1366   1.111       .  S
C1367      C1368   1.404       .  A
C1367      C1372   1.393       .  A
C1367      H1374   1.083       .  S
C1368      C1369   1.420       .  A
C1369      C1370   1.406       .  A
C1369      C1376   1.509       .  S
C1370      C1371   1.406       .  A
C1370      H1375   1.084       .  S
C1371      C1372   1.415       .  A
C1372      C1373   1.508       .  S
C1373      H1377   1.108       .  S
C1373      H1378   1.110       .  S
C1373      H1379   1.108       .  S
C1376      H1380   1.110       .  S
C1376      H1381   1.110       .  S
C1376      H1382   1.111       .  S
C1383      C1384   1.407       .  A
C1383      C1388   1.390       .  A
C1383      H1390   1.084       .  S
C1384      C1385   1.419       .  A
C1385      C1386   1.409       .  A
C1385      C1392   1.506       .  S
C1386      C1387   1.401       .  A
C1386      H1391   1.084       .  S
C1387      C1388   1.405       .  A
C1388      C1389   1.510       .  S
C1389      H1393   1.111       .  S
C1389      H1394   1.110       .  S
C1389      H1395   1.110       .  S
C1392      H1396   1.110       .  S
C1392      H1397   1.111       .  S
C1392      H1398   1.111       .  S
C1399      C1400   1.403       .  A
C1399      C1404   1.395       .  A
C1399      H1406   1.085       .  S
C1400      C1401   1.422       .  A
C1401      C1402   1.410       .  A
C1401      C1408   1.507       .  S
C1402      C1403   1.401       .  A
C1402      H1407   1.086       .  S
C1403      C1404   1.417       .  A
C1404      C1405   1.513       .  S
C1405      H1409   1.111       .  S
C1405      H1410   1.109       .  S
C1405      H1411   1.111       .  S
C1408      H1412   1.109       .  S
C1408      H1413   1.110       .  S
C1408      H1414   1.111       .  S
C1415      C1416   1.402       .  A
C1415      C1420   1.404       .  A
C1415      H1422   1.085       .  S
C1416      C1417   1.429       .  A
C1417      C1418   1.395       .  A
C1417      C1424   1.516       .  S
C1418      C1419   1.393       .  A
C1418      H1423   1.086       .  S
C1419      C1420   1.412       .  A
C1420      C1421   1.504       .  S
C1421      H1425   1.110       .  S
C1421      H1426   1.108       .  S
C1421      H1427   1.110       .  S
C1424      H1428   1.110       .  S
C1424      H1429   1.109       .  S
C1424      H1430   1.111       .  S
C1431      C1432   1.407       .  A
C1431      C1436   1.406       .  A
C1431      H1438   1.084   1_455  S
C1432      C1433   1.418       .  A
C1433      C1434   1.393       .  A
C1433      C1440   1.510       .  S
C1434      C1435   1.404       .  A
C1434      H1439   1.083       .  S
C1435      C1436   1.420       .  A
C1436      C1437   1.509       .  S
C1437      H1441   1.111       .  S
C1437      H1442   1.111       .  S
C1437      H1443   1.109       .  S
C1440      H1444   1.110       .  S
C1440      H1445   1.109       .  S
C1440      H1446   1.110       .  S
C1447      C1448   1.404   1_565  A
C1447      C1452   1.394       .  A
C1447      H1454   1.085       .  S
C1448      C1449   1.422       .  A
C1449      C1450   1.409   1_545  A
C1449      C1456   1.507       .  S
C1450      C1451   1.402       .  A
C1450      H1455   1.085       .  S
C1451      C1452   1.417       .  A
C1452      C1453   1.513       .  S
C1453      H1457   1.111       .  S
C1453      H1458   1.111       .  S
C1453      H1459   1.109       .  S
C1456      H1460   1.109       .  S
C1456      H1461   1.110       .  S
C1456      H1462   1.111       .  S
C1463      C1464   1.394       .  A
C1463      C1468   1.399       .  A
C1463      H1470   1.085       .  S
C1464      C1465   1.412       .  A
C1465      C1466   1.414       .  A
C1465      C1472   1.504       .  S
C1466      C1467   1.411       .  A
C1466      H1471   1.083       .  S
C1467      C1468   1.425       .  A
C1468      C1469   1.510       .  S
C1469      H1473   1.111       .  S
C1469      H1474   1.108       .  S
C1469      H1475   1.106       .  S
C1472      H1476   1.110       .  S
C1472      H1477   1.110       .  S
C1472      H1478   1.111       .  S
C1479      C1480   1.410       .  A
C1479      C1484   1.410       .  A
C1479      H1486   1.085       .  S
C1480      C1481   1.411       .  A
C1481      C1482   1.395       .  A
C1481      C1488   1.510       .  S
C1482      C1483   1.410       .  A
C1482      H1487   1.083       .  S
C1483      C1484   1.412       .  A
C1484      C1485   1.505       .  S
C1485      H1489   1.110       .  S
C1485      H1490   1.111       .  S
C1485      H1491   1.111       .  S
C1488      H1492   1.110       .  S
C1488      H1493   1.110       .  S
C1488      H1494   1.111       .  S
C1495      C1496   1.404       .  A
C1495      C1500   1.403       .  A
C1495      H1502   1.082       .  S
C1496      C1497   1.422       .  A
C1497      C1498   1.391       .  A
C1497      C1504   1.514       .  S
C1498      C1499   1.403       .  A
C1498      H1503   1.081       .  S
C1499      C1500   1.424       .  A
C1500      C1501   1.510       .  S
C1501      H1505   1.111       .  S
C1501      H1506   1.110       .  S
C1501      H1507   1.110       .  S
C1504      H1508   1.110       .  S
C1504      H1509   1.108       .  S
C1504      H1510   1.110       .  S
C1511      C1512   1.410       .  A
C1511      C1516   1.401       .  A
C1511      H1518   1.085       .  S
C1512      C1513   1.416       .  A
C1513      C1514   1.389       .  A
C1513      C1520   1.512       .  S
C1514      C1515   1.404       .  A
C1514      H1519   1.083       .  S
C1515      C1516   1.407       .  A
C1516      C1517   1.506       .  S
C1517      H1521   1.111       .  S
C1517      H1522   1.110       .  S
C1517      H1523   1.108       .  S
C1520      H1524   1.110       .  S
C1520      H1525   1.110       .  S
C1520      H1526   1.111       .  S
C1527      C1528   1.415       .  A
C1527      C1532   1.414       .  A
C1527      H1534   1.083       .  S
C1528      C1529   1.423       .  A
C1529      C1530   1.427       .  A
C1529      C1536   1.504       .  S
C1530      C1531   1.412       .  A
C1530      H1535   1.083       .  S
C1531      C1532   1.414       .  A
C1532      C1533   1.507       .  S
C1533      H1537   1.111       .  S
C1533      H1538   1.110       .  S
C1533      H1539   1.110       .  S
C1536      H1540   1.110       .  S
C1536      H1541   1.109       .  S
C1536      H1542   1.111       .  S
C1543      C1544   1.403       .  A
C1543      C1548   1.402       .  A
C1543      H1550   1.085       .  S
C1544      C1545   1.426       .  A
C1545      C1546   1.389       .  A
C1545      C1552   1.516       .  S
C1546      C1547   1.399       .  A
C1546      H1551   1.083       .  S
C1547      C1548   1.418       .  A
C1548      C1549   1.507       .  S
C1549      H1553   1.111       .  S
C1549      H1554   1.109       .  S
C1549      H1555   1.111       .  S
C1552      H1556   1.108       .  S
C1552      H1557   1.111       .  S
C1552      H1558   1.111       .  S
C1559      C1560   1.415       .  A
C1559      C1564   1.410       .  A
C1559      H1566   1.081       .  S
C1560      C1561   1.420       .  A
C1561      C1562   1.429       .  A
C1561      C1568   1.503       .  S
C1562      C1563   1.415       .  A
C1562      H1567   1.084       .  S
C1563      C1564   1.414       .  A
C1564      C1565   1.509       .  S
C1565      H1569   1.111       .  S
C1565      H1570   1.109       .  S
C1565      H1571   1.110       .  S
C1568      H1572   1.110       .  S
C1568      H1573   1.111       .  S
C1568      H1574   1.111       .  S
C1575      C1576   1.405       .  A
C1575      C1580   1.396       .  A
C1575      H1582   1.082       .  S
C1576      C1577   1.421       .  A
C1577      C1578   1.401       .  A
C1577      C1584   1.510       .  S
C1578      C1579   1.405       .  A
C1578      H1583   1.084       .  S
C1579      C1580   1.416       .  A
C1580      C1581   1.509       .  S
C1581      H1585   1.106       .  S
C1581      H1586   1.108       .  S
C1581      H1587   1.110       .  S
C1584      H1588   1.110       .  S
C1584      H1589   1.110       .  S
C1584      H1590   1.111       .  S
C1591      C1592   1.415       .  A
C1591      C1596   1.420       .  A
C1591      H1598   1.084       .  S
C1592      C1593   1.407       .  A
C1593      C1594   1.402       .  A
C1593      C1600   1.508       .  S
C1594      C1595   1.417       .  A
C1594      H1599   1.084       .  S
C1595      C1596   1.414       .  A
C1596      C1597   1.505       .  S
C1597      H1601   1.111       .  S
C1597      H1602   1.108       .  S
C1597      H1603   1.110       .  S
C1600      H1604   1.108       .  S
C1600      H1605   1.110       .  S
C1600      H1606   1.111       .  S
C1607      C1608   1.401       .  A
C1607      C1612   1.399       .  A
C1607      H1614   1.084       .  S
C1608      C1609   1.406       .  A
C1609      C1610   1.392       .  A
C1609      C1616   1.509       .  S
C1610      C1611   1.400       .  A
C1610      H1615   1.084       .  S
C1611      C1612   1.407       .  A
C1612      C1613   1.506       .  S
C1613      H1617   1.111       .  S
C1613      H1618   1.111       .  S
C1613      H1619   1.109       .  S
C1616      H1620   1.110       .  S
C1616      H1621   1.110       .  S
C1616      H1622   1.111       .  S
C1623      C1624   1.414       .  A
C1623      C1628   1.424       .  A
C1623      H1630   1.083       .  S
C1624      C1625   1.433       .  A
C1625      C1626   1.406       .  A
C1625      C1632   1.509       .  S
C1626      C1627   1.397       .  A
C1626      H1631   1.085       .  S
C1627      C1628   1.417       .  A
C1628      C1629   1.504       .  S
C1629      H1633   1.111       .  S
C1629      H1634   1.110       .  S
C1629      H1635   1.111       .  S
C1632      H1636   1.110       .  S
C1632      H1637   1.111       .  S
C1632      H1638   1.109       .  S
C1639      C1640   1.398       .  A
C1639      C1644   1.391       .  A
C1639      H1646   1.085       .  S
C1640      C1641   1.411       .  A
C1641      C1642   1.402       .  A
C1641      C1648   1.505       .  S
C1642      C1643   1.401       .  A
C1642      H1647   1.084       .  S
C1643      C1644   1.409       .  A
C1644      C1645   1.509       .  S
C1645      H1649   1.111       .  S
C1645      H1650   1.109       .  S
C1645      H1651   1.110       .  S
C1648      H1652   1.110       .  S
C1648      H1653   1.110       .  S
C1648      H1654   1.111       .  S
C1655      C1656   1.418       .  A
C1655      C1660   1.424       .  A
C1655      H1662   1.085       .  S
C1656      C1657   1.425       .  A
C1657      C1658   1.416       .  A
C1657      C1664   1.508       .  S
C1658      C1659   1.410       .  A
C1658      H1663   1.082       .  S
C1659      C1660   1.421       .  A
C1660      C1661   1.506       .  S
C1661      H1665   1.111       .  S
C1661      H1666   1.110       .  S
C1661      H1667   1.104       .  S
C1664      H1668   1.110       .  S
C1664      H1669   1.110       .  S
C1664      H1670   1.111       .  S
C1671      C1672   1.417       .  A
C1671      C1676   1.419       .  A
C1671      H1678   1.083       .  S
C1672      C1673   1.409       .  A
C1673      C1674   1.400       .  A
C1673      C1680   1.509       .  S
C1674      C1675   1.415       .  A
C1674      H1679   1.080       .  S
C1675      C1676   1.411       .  A
C1676      C1677   1.503       .  S
C1677      H1681   1.110       .  S
C1677      H1682   1.110       .  S
C1677      H1683   1.110       .  S
C1680      H1684   1.110       .  S
C1680      H1685   1.110       .  S
C1680      H1686   1.111       .  S
C1687      C1688   1.409       .  A
C1687      C1692   1.404       .  A
C1687      H1694   1.083       .  S
C1688      C1689   1.413       .  A
C1689      C1690   1.397       .  A
C1689      C1696   1.509       .  S
C1690      C1691   1.406       .  A
C1690      H1695   1.081       .  S
C1691      C1692   1.415       .  A
C1692      C1693   1.508       .  S
C1693      H1697   1.111       .  S
C1693      H1698   1.110       .  S
C1693      H1699   1.109       .  S
C1696      H1700   1.107       .  S
C1696      H1701   1.110       .  S
C1696      H1702   1.105       .  S
C1703      C1704   1.405       .  A
C1703      C1708   1.393       .  A
C1703      H1710   1.085       .  S
C1704      C1705   1.418       .  A
C1705      C1706   1.407       .  A
C1705      C1712   1.509       .  S
C1706      C1707   1.409       .  A
C1706      H1711   1.086       .  S
C1707      C1708   1.420       .  A
C1708      C1709   1.511       .  S
C1709      H1713   1.109       .  S
C1709      H1714   1.111       .  S
C1709      H1715   1.109       .  S
C1712      H1716   1.111       .  S
C1712      H1717   1.111       .  S
C1712      H1718   1.110       .  S
C1719      C1720   1.407       .  A
C1719      C1724   1.395       .  A
C1719      H1726   1.085       .  S
C1720      C1721   1.418       .  A
C1721      C1722   1.414       .  A
C1721      C1728   1.506       .  S
C1722      C1723   1.405       .  A
C1722      H1727   1.084       .  S
C1723      C1724   1.407       .  A
C1724      C1725   1.509       .  S
C1725      H1729   1.111       .  S
C1725      H1730   1.110       .  S
C1725      H1731   1.110       .  S
C1728      H1732   1.110       .  S
C1728      H1733   1.110       .  S
C1728      H1734   1.111       .  S
C1735      C1736   1.405       .  A
C1735      C1740   1.393       .  A
C1735      H1742   1.084       .  S
C1736      C1737   1.419       .  A
C1737      C1738   1.408       .  A
C1737      C1744   1.508       .  S
C1738      C1739   1.408       .  A
C1738      H1743   1.084       .  S
C1739      C1740   1.415       .  A
C1740      C1741   1.508       .  S
C1741      H1745   1.108       .  S
C1741      H1746   1.108       .  S
C1741      H1747   1.110       .  S
C1744      H1748   1.110       .  S
C1744      H1749   1.111       .  S
C1744      H1750   1.111       .  S
C1751      C1752   1.411       .  A
C1751      C1756   1.395       .  A
C1751      H1758   1.084       .  S
C1752      C1753   1.416       .  A
C1753      C1754   1.408       .  A
C1753      C1760   1.506       .  S
C1754      C1755   1.403       .  A
C1754      H1759   1.083       .  S
C1755      C1756   1.406       .  A
C1756      C1757   1.510       .  S
C1757      H1761   1.111       .  S
C1757      H1762   1.109       .  S
C1757      H1763   1.110       .  S
C1760      H1764   1.111       .  S
C1760      H1765   1.110       .  S
C1760      H1766   1.111       .  S
C1767      C1768   1.401       .  A
C1767      C1772   1.409       .  A
C1767      H1774   1.083       .  S
C1768      C1769   1.417       .  A
C1769      C1770   1.394       .  A
C1769      C1776   1.513       .  S
C1770      C1771   1.404       .  A
C1770      H1775   1.083       .  S
C1771      C1772   1.422       .  A
C1772      C1773   1.507       .  S
C1773      H1777   1.111       .  S
C1773      H1778   1.110       .  S
C1773      H1779   1.110       .  S
C1776      H1780   1.111       .  S
C1776      H1781   1.111       .  S
C1776      H1782   1.109       .  S
C1783      C1784   1.403       .  A
C1783      C1788   1.410       .  A
C1783      H1790   1.083       .  S
C1784      C1785   1.405       .  A
C1785      C1786   1.392       .  A
C1785      C1792   1.510       .  S
C1786      C1787   1.409       .  A
C1786      H1791   1.084       .  S
C1787      C1788   1.417       .  A
C1788      C1789   1.504       .  S
C1789      H1793   1.110       .  S
C1789      H1794   1.111       .  S
C1789      H1795   1.110       .  S
C1792      H1796   1.110       .  S
C1792      H1797   1.110       .  S
C1792      H1798   1.111       .  S
C1799      C1800   1.404       .  A
C1799      C1804   1.407       .  A
C1799      H1806   1.083       .  S
C1800      C1801   1.414       .  A
C1801      C1802   1.393       .  A
C1801      C1808   1.513       .  S
C1802      C1803   1.407       .  A
C1802      H1807   1.081       .  S
C1803      C1804   1.420       .  A
C1804      C1805   1.508       .  S
C1805      H1809   1.111       .  S
C1805      H1810   1.110       .  S
C1805      H1811   1.110       .  S
C1808      H1812   1.109       .  S
C1808      H1813   1.111       .  S
C1808      H1814   1.110       .  S
C1815      C1816   1.396       .  A
C1815      C1820   1.394       .  A
C1815      H1822   1.085       .  S
C1816      C1817   1.409       .  A
C1817      C1818   1.413       .  A
C1817      C1824   1.503       .  S
C1818      C1819   1.410       .  A
C1818      H1823   1.083       .  S
C1819      C1820   1.417       .  A
C1820      C1821   1.507       .  S
C1821      H1825   1.107       .  S
C1821      H1826   1.105       .  S
C1821      H1827   1.111       .  S
C1824      H1828   1.110       .  S
C1824      H1829   1.110       .  S
C1824      H1830   1.109       .  S
C1831      C1832   1.408       .  A
C1831      C1836   1.404       .  A
C1831      H1838   1.084   1_455  S
C1832      C1833   1.410       .  A
C1833      C1834   1.396       .  A
C1833      C1840   1.508       .  S
C1834      C1835   1.405       .  A
C1834      H1839   1.083       .  S
C1835      C1836   1.414       .  A
C1836      C1837   1.508       .  S
C1837      H1841   1.111       .  S
C1837      H1842   1.110       .  S
C1837      H1843   1.110       .  S
C1840      H1844   1.108       .  S
C1840      H1845   1.110       .  S
C1840      H1846   1.106       .  S
C1847      C1848   1.409       .  A
C1847      C1852   1.394       .  A
C1847      H1854   1.084       .  S
C1848      C1849   1.412       .  A
C1849      C1850   1.406       .  A
C1849      C1856   1.506       .  S
C1850      C1851   1.407       .  A
C1850      H1855   1.084       .  S
C1851      C1852   1.408       .  A
C1852      C1853   1.510       .  S
C1853      H1857   1.111       .  S
C1853      H1858   1.110       .  S
C1853      H1859   1.110       .  S
C1856      H1860   1.110       .  S
C1856      H1861   1.109       .  S
C1856      H1862   1.111       .  S
C1863      C1864   1.420       .  A
C1863      C1868   1.419       .  A
C1863      H1870   1.084       .  S
C1864      C1865   1.412       .  A
C1865      C1866   1.399       .  A
C1865      C1872   1.509       .  S
C1866      C1867   1.412       .  A
C1866      H1871   1.080       .  S
C1867      C1868   1.409       .  A
C1868      C1869   1.504       .  S
C1869      H1873   1.111       .  S
C1869      H1874   1.110       .  S
C1869      H1875   1.110       .  S
C1872      H1876   1.110       .  S
C1872      H1877   1.110       .  S
C1872      H1878   1.111       .  S
C1879      C1880   1.406       .  A
C1879      C1884   1.393       .  A
C1879      H1886   1.083       .  S
C1880      C1881   1.419       .  A
C1881      C1882   1.408       .  A
C1881      C1888   1.508       .  S
C1882      C1883   1.408       .  A
C1882      H1887   1.083       .  S
C1883      C1884   1.418       .  A
C1884      C1885   1.512       .  S
C1885      H1889   1.111       .  S
C1885      H1890   1.109       .  S
C1885      H1891   1.110       .  S
C1888      H1892   1.110       .  S
C1888      H1893   1.108       .  S
C1888      H1894   1.111       .  S
C1895      C1896   1.413       .  A
C1895      C1900   1.425       .  A
C1895      H1902   1.083       .  S
C1896      C1897   1.433       .  A
C1897      C1898   1.408       .  A
C1897      C1904   1.510       .  S
C1898      C1899   1.397       .  A
C1898      H1903   1.084       .  S
C1899      C1900   1.419       .  A
C1900      C1901   1.504       .  S
C1901      H1905   1.111       .  S
C1901      H1906   1.110       .  S
C1901      H1907   1.110       .  S
C1904      H1908   1.110       .  S
C1904      H1909   1.110       .  S
C1904      H1910   1.111       .  S
C1911      C1912   1.407       .  A
C1911      C1916   1.384       .  A
C1911      H1918   1.083       .  S
C1912      C1913   1.411       .  A
C1913      C1914   1.401       .  A
C1913      C1920   1.507       .  S
C1914      C1915   1.410       .  A
C1914      H1919   1.083       .  S
C1915      C1916   1.413       .  A
C1916      C1917   1.513       .  S
C1917      H1921   1.111       .  S
C1917      H1922   1.108       .  S
C1917      H1923   1.109       .  S
C1920      H1924   1.110       .  S
C1920      H1925   1.110       .  S
C1920      H1926   1.111       .  S
C1927      C1928   1.413       .  A
C1927      C1932   1.399       .  A
C1927      H1934   1.081       .  S
C1928      C1929   1.411       .  A
C1929      C1930   1.415       .  A
C1929      C1936   1.504       .  S
C1930      C1931   1.414       .  A
C1930      H1935   1.084       .  S
C1931      C1932   1.410       .  A
C1932      C1933   1.509       .  S
C1933      H1937   1.111       .  S
C1933      H1938   1.110       .  S
C1933      H1939   1.110       .  S
C1936      H1940   1.111       .  S
C1936      H1941   1.110       .  S
C1936      H1942   1.111       .  S
C1943      C1944   1.405       .  A
C1943      C1948   1.396       .  A
C1943      H1950   1.081       .  S
C1944      C1945   1.415       .  A
C1945      C1946   1.404       .  A
C1945      C1952   1.508       .  S
C1946      C1947   1.408       .  A
C1946      H1951   1.084       .  S
C1947      C1948   1.412       .  A
C1948      C1949   1.509       .  S
C1949      H1953   1.105       .  S
C1949      H1954   1.110       .  S
C1949      H1955   1.108       .  S
C1952      H1956   1.110       .  S
C1952      H1957   1.111       .  S
C1952      H1958   1.111       .  S
C1959      C1960   1.412       .  A
C1959      C1964   1.426       .  A
C1959      H1966   1.082       .  S
C1960      C1961   1.437       .  A
C1961      C1962   1.411       .  A
C1961      C1968   1.512       .  S
C1962      C1963   1.396       .  A
C1962      H1967   1.083       .  S
C1963      C1964   1.420       .  A
C1964      C1965   1.504       .  S
C1965      H1969   1.110       .  S
C1965      H1970   1.111       .  S
C1965      H1971   1.110       .  S
C1968      H1972   1.109       .  S
C1968      H1973   1.110       .  S
C1968      H1974   1.111       .  S
C1975      C1976   1.397       .  A
C1975      C1980   1.390       .  A
C1975      H1982   1.082       .  S
C1976      C1977   1.420       .  A
C1977      C1978   1.401       .  A
C1977      C1984   1.508       .  S
C1978      C1979   1.401       .  A
C1978      H1983   1.083       .  S
C1979      C1980   1.430       .  A
C1980      C1981   1.516       .  S
C1981      H1985   1.111       .  S
C1981      H1986   1.107       .  S
C1981      H1987   1.108       .  S
C1984      H1988   1.108   1_455  S
C1984      H1989   1.111       .  S
C1984      H1990   1.111       .  S
C1991      C1992   1.408       .  A
C1991      C1996   1.417       .  A
C1991      H1998   1.083       .  S
C1992      C1993   1.427       .  A
C1993      C1994   1.396       .  A
C1993      C2000   1.508       .  S
C1994      C1995   1.392       .  A
C1994      H1999   1.086       .  S
C1995      C1996   1.415       .  A
C1996      C1997   1.504       .  S
C1997      H2001   1.111       .  S
C1997      H2002   1.108       .  S
C1997      H2003   1.110       .  S
C2000      H2004   1.101       .  S
C2000      H2005   1.110       .  S
C2000      H2006   1.106       .  S
C2007      C2008   1.403       .  A
C2007      C2012   1.395       .  A
C2007      H2014   1.083       .  S
C2008      C2009   1.420       .  A
C2009      C2010   1.401       .  A
C2009      C2016   1.506       .  S
C2010      C2011   1.404       .  A
C2010      H2015   1.084       .  S
C2011      C2012   1.419       .  A
C2012      C2013   1.510       .  S
C2013      H2017   1.108       .  S
C2013      H2018   1.110       .  S
C2013      H2019   1.108       .  S
C2016      H2020   1.110       .  S
C2016      H2021   1.108       .  S
C2016      H2022   1.111       .  S
C2023      C2024   1.401       .  A
C2023      C2028   1.410       .  A
C2023      H2030   1.082       .  S
C2024      C2025   1.428       .  A
C2025      C2026   1.427       .  A
C2025      C2032   1.505       .  S
C2026      C2027   1.410       .  A
C2026      H2031   1.082       .  S
C2027      C2028   1.432       .  A
C2028      C2029   1.503       .  S
C2029      H2033   1.111       .  S
C2029      H2034   1.100       .  S
C2029      H2035   1.102       .  S
C2032      H2036   1.110       .  S
C2032      H2037   1.110       .  S
C2032      H2038   1.111       .  S
C2039      C2040   1.414       .  A
C2039      C2044   1.405       .  A
C2039      H2046   1.081       .  S
C2040      C2041   1.420       .  A
C2041      C2042   1.424       .  A
C2041      C2048   1.504       .  S
C2042      C2043   1.411       .  A
C2042      H2047   1.083       .  S
C2043      C2044   1.409       .  A
C2044      C2045   1.508       .  S
C2045      H2049   1.111       .  S
C2045      H2050   1.110   1_565  S
C2045      H2051   1.110       .  S
C2048      H2052   1.109       .  S
C2048      H2053   1.110       .  S
C2048      H2054   1.111       .  S
C2055      C2056   1.396       .  A
C2055      C2060   1.390       .  A
C2055      H2062   1.085       .  S
C2056      C2057   1.412       .  A
C2057      C2058   1.403       .  A
C2057      C2064   1.505       .  S
C2058      C2059   1.400       .  A
C2058      H2063   1.085       .  S
C2059      C2060   1.410       .  A
C2060      C2061   1.503       .  S
C2061      H2065   1.111       .  S
C2061      H2066   1.109       .  S
C2061      H2067   1.109       .  S
C2064      H2068   1.110       .  S
C2064      H2069   1.110       .  S
C2064      H2070   1.111       .  S
C2071      C2072   1.412       .  A
C2071      C2076   1.404       .  A
C2071      H2078   1.084   1_565  S
C2072      C2073   1.414       .  A
C2073      C2074   1.387       .  A
C2073      C2080   1.509       .  S
C2074      C2075   1.408       .  A
C2074      H2079   1.082       .  S
C2075      C2076   1.413       .  A
C2076      C2077   1.507       .  S
C2077      H2081   1.111       .  S
C2077      H2082   1.110       .  S
C2077      H2083   1.110       .  S
C2080      H2084   1.108       .  S
C2080      H2085   1.110       .  S
C2080      H2086   1.110       .  S
C2087      C2088   1.414       .  A
C2087      C2092   1.398       .  A
C2087      H2094   1.083       .  S
C2088      C2089   1.407       .  A
C2089      C2090   1.418       .  A
C2089      C2096   1.502       .  S
C2090      C2091   1.418       .  A
C2090      H2095   1.084       .  S
C2091      C2092   1.411       .  A
C2092      C2093   1.510       .  S
C2093      H2097   1.111       .  S
C2093      H2098   1.110       .  S
C2093      H2099   1.110       .  S
C2096      H2100   1.109       .  S
C2096      H2101   1.110       .  S
C2096      H2102   1.110       .  S
C2103      C2104   1.401       .  A
C2103      C2108   1.393       .  A
C2103      H2110   1.085       .  S
C2104      C2105   1.415       .  A
C2105      C2106   1.406       .  A
C2105      C2112   1.506       .  S
C2106      C2107   1.402       .  A
C2106      H2111   1.084       .  S
C2107      C2108   1.413       .  A
C2108      C2109   1.512       .  S
C2109      H2113   1.111       .  S
C2109      H2114   1.111       .  S
C2109      H2115   1.109       .  S
C2112      H2116   1.109       .  S
C2112      H2117   1.110       .  S
C2112      H2118   1.111       .  S
C2119      C2120   1.410       .  A
C2119      C2124   1.415       .  A
C2119      H2126   1.082       .  S
C2120      C2121   1.420       .  A
C2121      C2122   1.420       .  A
C2121      C2128   1.505       .  S
C2122      C2123   1.415       .  A
C2122      H2127   1.084       .  S
C2123      C2124   1.425       .  A
C2124      C2125   1.508       .  S
C2125      H2129   1.111       .  S
C2125      H2130   1.110       .  S
C2125      H2131   1.110       .  S
C2128      H2132   1.103       .  S
C2128      H2133   1.110       .  S
C2128      H2134   1.111       .  S
C2135      C2136   1.400       .  A
C2135      C2140   1.399       .  A
C2135      H2142   1.082       .  S
C2136      C2137   1.410       .  A
C2137      C2138   1.392       .  A
C2137      C2144   1.510       .  S
C2138      C2139   1.399       .  A
C2138      H2143   1.085       .  S
C2139      C2140   1.414       .  A
C2140      C2141   1.507       .  S
C2141      H2145   1.110       .  S
C2141      H2146   1.111       .  S
C2141      H2147   1.108       .  S
C2144      H2148   1.110       .  S
C2144      H2149   1.109       .  S
C2144      H2150   1.111       .  S
C2151      C2152   1.418       .  A
C2151      C2156   1.402       .  A
C2151      H2158   1.084       .  S
C2152      C2153   1.415       .  A
C2153      C2154   1.421       .  A
C2153      C2160   1.503       .  S
C2154      C2155   1.414       .  A
C2154      H2159   1.084       .  S
C2155      C2156   1.406       .  A
C2156      C2157   1.509       .  S
C2157      H2161   1.111       .  S
C2157      H2162   1.110       .  S
C2157      H2163   1.109       .  S
C2160      H2164   1.110       .  S
C2160      H2165   1.108       .  S
C2160      H2166   1.111       .  S
C2167      C2168   1.407       .  A
C2167      C2172   1.396       .  A
C2167      H2174   1.082       .  S
C2168      C2169   1.420       .  A
C2169      C2170   1.408       .  A
C2169      C2176   1.508       .  S
C2170      C2171   1.409       .  A
C2170      H2175   1.083       .  S
C2171      C2172   1.420       .  A
C2172      C2173   1.513       .  S
C2173      H2177   1.111       .  S
C2173      H2178   1.110       .  S
C2173      H2179   1.107       .  S
C2176      H2180   1.109       .  S
C2176      H2181   1.110       .  S
C2176      H2182   1.111       .  S
C2183      C2184   1.399       .  A
C2183      C2188   1.415       .  A
C2183      H2190   1.084       .  S
C2184      C2185   1.418       .  A
C2185      C2186   1.425       .  A
C2185      C2192   1.503       .  S
C2186      C2187   1.411       .  A
C2186      H2191   1.084       .  S
C2187      C2188   1.434       .  A
C2188      C2189   1.511       .  S
C2189      H2193   1.111       .  S
C2189      H2194   1.110       .  S
C2189      H2195   1.109       .  S
C2192      H2196   1.110       .  S
C2192      H2197   1.110       .  S
C2192      H2198   1.111       .  S
C2199      C2200   1.409       .  A
C2199      C2204   1.399       .  A
C2199      H2206   1.083       .  S
C2200      C2201   1.415       .  A
C2201      C2202   1.387       .  A
C2201      C2208   1.509       .  S
C2202      C2203   1.407       .  A
C2202      H2207   1.083       .  S
C2203      C2204   1.413       .  A
C2204      C2205   1.508       .  S
C2205      H2209   1.109       .  S
C2205      H2210   1.110       .  S
C2205      H2211   1.110       .  S
C2208      H2212   1.109       .  S
C2208      H2213   1.109       .  S
C2208      H2214   1.110       .  S
C2215      C2216   1.400       .  A
C2215      C2220   1.392       .  A
C2215      H2222   1.084       .  S
C2216      C2217   1.407       .  A
C2217      C2218   1.394       .  A
C2217      C2224   1.506       .  S
C2218      C2219   1.399       .  A
C2218      H2223   1.086       .  S
C2219      C2220   1.407       .  A
C2220      C2221   1.509       .  S
C2221      H2225   1.111       .  S
C2221      H2226   1.110       .  S
C2221      H2227   1.110       .  S
C2224      H2228   1.111       .  S
C2224      H2229   1.110       .  S
C2224      H2230   1.111       .  S
C2231      C2232   1.411       .  A
C2231      C2236   1.400       .  A
C2231      H2238   1.083       .  S
C2232      C2233   1.416       .  A
C2233      C2234   1.385       .  A
C2233      C2240   1.512       .  S
C2234      C2235   1.404       .  A
C2234      H2239   1.083       .  S
C2235      C2236   1.409       .  A
C2236      C2237   1.509       .  S
C2237      H2241   1.110       .  S
C2237      H2242   1.109       .  S
C2237      H2243   1.110       .  S
C2240      H2244   1.108       .  S
C2240      H2245   1.110       .  S
C2240      H2246   1.110       .  S
C2247      C2248   1.412       .  A
C2247      C2252   1.422       .  A
C2247      H2254   1.082       .  S
C2248      C2249   1.432       .  A
C2249      C2250   1.409       .  A
C2249      C2256   1.509       .  S
C2250      C2251   1.399       .  A
C2250      H2255   1.083       .  S
C2251      C2252   1.419       .  A
C2252      C2253   1.504       .  S
C2253      H2257   1.111       .  S
C2253      H2258   1.110       .  S
C2253      H2259   1.111       .  S
C2256      H2260   1.110       .  S
C2256      H2261   1.110       .  S
C2256      H2262   1.111       .  S
C2263      C2264   1.413       .  A
C2263      C2268   1.428       .  A
C2263      H2270   1.083       .  S
C2264      C2265   1.412       .  A
C2265      C2266   1.413       .  A
C2265      C2272   1.507       .  S
C2266      C2267   1.417       .  A
C2266      H2271   1.084       .  S
C2267      C2268   1.422       .  A
C2268      C2269   1.503       .  S
C2269      H2273   1.110       .  S
C2269      H2274   1.110       .  S
C2269      H2275   1.109       .  S
C2272      H2276   1.110       .  S
C2272      H2277   1.110       .  S
C2272      H2278   1.111       .  S
C2279      C2280   1.392       .  A
C2279      C2284   1.394       .  A
C2279      H2286   1.085       .  S
C2280      C2281   1.409       .  A
C2281      C2282   1.406       .  A
C2281      C2288   1.503       .  S
C2282      C2283   1.403       .  A
C2282      H2287   1.082       .  S
C2283      C2284   1.428       .  A
C2284      C2285   1.515       .  S
C2285      H2289   1.111       .  S
C2285      H2290   1.105       .  S
C2285      H2291   1.107       .  S
C2288      H2292   1.110       .  S
C2288      H2293   1.110       .  S
C2288      H2294   1.111       .  S
C2295      C2296   1.405       .  A
C2295      C2300   1.401       .  A
C2295      H2302   1.085       .  S
C2296      C2297   1.418       .  A
C2297      C2298   1.388       .  A
C2297      C2304   1.509       .  S
C2298      C2299   1.399       .  A
C2298      H2303   1.084       .  S
C2299      C2300   1.421       .  A
C2300      C2301   1.510       .  S
C2301      H2305   1.111       .  S
C2301      H2306   1.109       .  S
C2301      H2307   1.110       .  S
C2304      H2308   1.107       .  S
C2304      H2309   1.110       .  S
C2304      H2310   1.107       .  S
C2311      C2312   1.408       .  A
C2311      C2316   1.403       .  A
C2311      H2318   1.083       .  S
C2312      C2313   1.414       .  A
C2313      C2314   1.393       .  A
C2313      C2320   1.508       .  S
C2314      C2315   1.407       .  A
C2314      H2319   1.081       .  S
C2315      C2316   1.418       .  A
C2316      C2317   1.507       .  S
C2317      H2321   1.109       .  S
C2317      H2322   1.110       .  S
C2317      H2323   1.111       .  S
C2320      H2324   1.109       .  S
C2320      H2325   1.109       .  S
C2320      H2326   1.109       .  S
C2327      C2328   1.391       .  A
C2327      C2332   1.398       .  A
C2327      H2334   1.084       .  S
C2328      C2329   1.415       .  A
C2329      C2330   1.416       .  A
C2329      C2336   1.503       .  S
C2330      C2331   1.406       .  A
C2330      H2335   1.082       .  S
C2331      C2332   1.433       .  A
C2332      C2333   1.511       .  S
C2333      H2337   1.111       .  S
C2333      H2338   1.110       .  S
C2333      H2339   1.110       .  S
C2336      H2340   1.110       .  S
C2336      H2341   1.108       .  S
C2336      H2342   1.111       .  S
C2343      C2344   1.414       .  A
C2343      C2348   1.429       .  A
C2343      H2350   1.083       .  S
C2344      C2345   1.410       .  A
C2345      C2346   1.408       .  A
C2345      C2352   1.508       .  S
C2346      C2347   1.415       .  A
C2346      H2351   1.080       .  S
C2347      C2348   1.422       .  A
C2348      C2349   1.503       .  S
C2349      H2353   1.111       .  S
C2349      H2354   1.110       .  S
C2349      H2355   1.110       .  S
C2352      H2356   1.110       .  S
C2352      H2357   1.110       .  S
C2352      H2358   1.111       .  S
C2359      C2360   1.396       .  A
C2359      C2364   1.410       .  A
C2359      H2366   1.084       .  S
C2360      C2361   1.418       .  A
C2361      C2362   1.426       .  A
C2361      C2368   1.504       .  S
C2362      C2363   1.413       .  A
C2362      H2367   1.083       .  S
C2363      C2364   1.433       .  A
C2364      C2365   1.508       .  S
C2365      H2369   1.111       .  S
C2365      H2370   1.099       .  S
C2365      H2371   1.103       .  S
C2368      H2372   1.109       .  S
C2368      H2373   1.110       .  S
C2368      H2374   1.111       .  S
C2375      C2376   1.403       .  A
C2375      C2380   1.401       .  A
C2375      H2382   1.084       .  S
C2376      C2377   1.422       .  A
C2377      C2378   1.390       .  A
C2377      C2384   1.514       .  S
C2378      C2379   1.402       .  A
C2378      H2383   1.084       .  S
C2379      C2380   1.421       .  A
C2380      C2381   1.509       .  S
C2381      H2385   1.111       .  S
C2381      H2386   1.110       .  S
C2381      H2387   1.109       .  S
C2384      H2388   1.106       .  S
C2384      H2389   1.110       .  S
C2384      H2390   1.111       .  S
C2391      C2392   1.398       .  A
C2391      C2396   1.391       .  A
C2391      H2398   1.085       .  S
C2392      C2393   1.412       .  A
C2393      C2394   1.403       .  A
C2393      C2400   1.506       .  S
C2394      C2395   1.400       .  A
C2394      H2399   1.084       .  S
C2395      C2396   1.412       .  A
C2396      C2397   1.510       .  S
C2397      H2401   1.111       .  S
C2397      H2402   1.107       .  S
C2397      H2403   1.108       .  S
C2400      H2404   1.108       .  S
C2400      H2405   1.110       .  S
C2400      H2406   1.111       .  S
C2407      C2408   1.401       .  A
C2407      C2412   1.416       .  A
C2407      H2414   1.085       .  S
C2408      C2409   1.419       .  A
C2409      C2410   1.426       .  A
C2409      C2416   1.504       .  S
C2410      C2411   1.413       .  A
C2410      H2415   1.083       .  S
C2411      C2412   1.432       .  A
C2412      C2413   1.511       .  S
C2413      H2417   1.111       .  S
C2413      H2418   1.110       .  S
C2413      H2419   1.109       .  S
C2416      H2420   1.110       .  S
C2416      H2421   1.110       .  S
C2416      H2422   1.111       .  S
C2423      C2424   1.406       .  A
C2423      C2428   1.406       .  A
C2423      H2430   1.084       .  S
C2424      C2425   1.415       .  A
C2425      C2426   1.419       .  A
C2425      C2432   1.505       .  S
C2426      C2427   1.414       .  A
C2426      H2431   1.083       .  S
C2427      C2428   1.423       .  A
C2428      C2429   1.510       .  S
C2429      H2433   1.111       .  S
C2429      H2434   1.110       .  S
C2429      H2435   1.110       .  S
C2432      H2436   1.110       .  S
C2432      H2437   1.110       .  S
C2432      H2438   1.111       .  S
C2439      C2440   1.397       .  A
C2439      C2444   1.389       .  A
C2439      H2446   1.083       .  S
C2440      C2441   1.422       .  A
C2441      C2442   1.398       .  A
C2441      C2448   1.511       .  S
C2442      C2443   1.401       .  A
C2442      H2447   1.084       .  S
C2443      C2444   1.424       .  A
C2444      C2445   1.511       .  S
C2445      H2449   1.111       .  S
C2445      H2450   1.100       .  S
C2445      H2451   1.105       .  S
C2448      H2452   1.111       .  S
C2448      H2453   1.109       .  S
C2448      H2454   1.111       .  S
C2455      C2456   1.400       .  A
C2455      C2460   1.389       .  A
C2455      H2462   1.085       .  S
C2456      C2457   1.404       .  A
C2457      C2458   1.395       .  A
C2457      C2464   1.506       .  S
C2458      C2459   1.400       .  A
C2458      H2463   1.085       .  S
C2459      C2460   1.403       .  A
C2460      C2461   1.508       .  S
C2461      H2465   1.111       .  S
C2461      H2466   1.111       .  S
C2461      H2467   1.110       .  S
C2464      H2468   1.110       .  S
C2464      H2469   1.110       .  S
C2464      H2470   1.111       .  S
