geometry optimzed in LAMMPS
_audit_creation_date              2020-12-01 
_audit_creation_method            'lammps2cif' 
_symmetry_space_group_name_H-M    'P1' 
_symmetry_Int_Tables_number       1 
_symmetry_cell_setting            triclinic 
loop_ 
_symmetry_equiv_pos_as_xyz 
  x,y,z 
_cell_length_a                    52.15413405 
_cell_length_b                    52.14290801163317 
_cell_length_c                    52.146529793633064 
_cell_angle_alpha                 89.8033195676223 
_cell_angle_beta                  90.02425506651285 
_cell_angle_gamma                 90.11812786536697 
loop_ 
_atom_site_label 
_atom_site_type_symbol 
_atom_site_fract_x 
_atom_site_fract_y 
_atom_site_fract_z 
_atom_site_charge 
In1        In  0.25263233  0.88457019  0.25752220     1.36900
C2          C  0.25360404  0.85149738  0.21895334     0.77800
O3          O  0.29489501  0.88691226  0.25127387    -0.60700
O4          O  0.28133434  0.87427167  0.28775192    -0.51600
C5          C  0.24489453  0.93453131  0.26186563     0.70400
O6          O  0.25227236  0.92461434  0.24102642    -0.46400
C7          C  0.20996150  0.86357404  0.27532523     0.75100
O8          O  0.24456051  0.87388302  0.21618943    -0.58300
O9          O  0.23130805  0.86112889  0.28657973    -0.48400
O10         O  0.26276127  0.84692635  0.24079314    -0.54700
C11         C  0.30024157  0.87704145  0.27277150     0.85300
O12         O  0.24257096  0.91901585  0.28030068    -0.56600
O13         O  0.21028269  0.87826905  0.25607471    -0.59900
In14       In  0.21777499  0.09182190  0.28579250     1.36900
C15         C  0.17683197  0.12140081  0.29024850     0.77800
O16         O  0.21451985  0.08919202  0.32842774    -0.60700
O17         O  0.24796424  0.10658779  0.31274932    -0.51600
C18         C  0.22500667  0.04205517  0.27768209     0.70400
O19         O  0.20416214  0.05075888  0.28639228    -0.46400
C20         C  0.23164223  0.11286571  0.24166681     0.75100
O21         O  0.17493913  0.09829789  0.28297368    -0.58300
O22         O  0.24605168  0.11286288  0.26119167    -0.48400
O23         O  0.19930809  0.12875831  0.29514514    -0.54700
C24         C  0.23468116  0.10194700  0.33251591     0.85300
O25         O  0.24205853  0.05874598  0.27384770    -0.56600
O26         O  0.21065621  0.10115796  0.24463155    -0.59900
In27       In  0.24365025  0.75341146  0.93044437     1.36900
C28         C  0.24440482  0.79574078  0.90231185     0.77800
O29         O  0.28608138  0.76018200  0.92953400    -0.60700
O30         O  0.27188420  0.72562451  0.91334088    -0.51600
C31         C  0.23911215  0.74376169  0.98037526     0.70400
O32         O  0.24435229  0.76584010  0.97177097    -0.46400
C33         C  0.19935791  0.73780229  0.91091381     0.75100
O34         O  0.23931611  0.79648084  0.92607337    -0.58300
O35         O  0.21996205  0.72531326  0.90848808    -0.48400
O36         O  0.24854809  0.77368564  0.89354512    -0.54700
C37         C  0.29081458  0.74050395  0.91637160     0.85300
O38         O  0.23698147  0.72665703  0.96350370    -0.56600
O39         O  0.20116446  0.75748123  0.92481395    -0.59900
In40       In  0.21932601  0.71810917  0.13863828     1.36900
C41         C  0.17748516  0.71654283  0.16750634     0.77800
O42         O  0.21459435  0.67561122  0.14047410    -0.60700
O43         O  0.24904182  0.69163793  0.15533430    -0.51600
C44         C  0.22531570  0.72218800  0.08813208     0.70400
O45         O  0.20423813  0.71566340  0.09811378    -0.46400
C46         C  0.23529535  0.76318360  0.15648136     0.75100
O47         O  0.17649668  0.72244103  0.14395055    -0.58300
O48         O  0.24847561  0.74296163  0.15844993    -0.48400
O49         O  0.19963830  0.71180844  0.17583025    -0.54700
C50         C  0.23478112  0.67212339  0.15332703     0.85300
O51         O  0.24334765  0.72526101  0.10390066    -0.56600
O52         O  0.21451198  0.76038971  0.14445057    -0.59900
In53       In  0.87864120  0.76615428  0.76934463     1.36900
C54         C  0.84728000  0.80586214  0.76534789     0.77800
O55         O  0.88026749  0.77037834  0.72661521    -0.60700
O56         O  0.86649142  0.73521190  0.74224500    -0.51600
C57         C  0.92857929  0.75929871  0.77675236     0.70400
O58         O  0.91952063  0.78084067  0.77017977    -0.46400
C59         C  0.85741646  0.75019267  0.81285550     0.75100
O60         O  0.87017747  0.80870267  0.77307091    -0.58300
O61         O  0.85578892  0.73785131  0.79211867    -0.48400
O62         O  0.84129084  0.78323909  0.75956062    -0.54700
C63         C  0.86957129  0.74903234  0.72251488     0.85300
O64         O  0.91215416  0.74169451  0.77881499    -0.56600
O65         O  0.87102431  0.77019659  0.81155412    -0.59900
In66       In  0.08580340  0.73090413  0.79969964     1.36900
C67         C  0.11665142  0.72775260  0.83996415     0.77800
O68         O  0.08568092  0.68817541  0.80323341    -0.60700
O69         O  0.10076466  0.70471419  0.76906996    -0.51600
C70         C  0.03595616  0.73824095  0.79301464     0.70400
O71         O  0.04497338  0.72903798  0.81358477    -0.46400
C72         C  0.10453875  0.77594217  0.78612387     0.75100
O73         O  0.09304497  0.73289659  0.84257014    -0.58300
O74         O  0.10669288  0.75623550  0.77219602    -0.48400
O75         O  0.12383164  0.72458741  0.81716278    -0.54700
C76         C  0.09799959  0.68479535  0.78269953     0.85300
O77         O  0.05227178  0.74229516  0.77566764    -0.56600
O78         O  0.09161088  0.77270538  0.80632805    -0.59900
In79       In  0.25158218  0.09640323  0.81327486     1.36900
C80         C  0.24848267  0.12871544  0.85181649     0.77800
O81         O  0.29322866  0.09990901  0.82421563    -0.60700
O82         O  0.28223986  0.10865418  0.78586160    -0.51600
C83         C  0.24640119  0.04609355  0.80867287     0.70400
O84         O  0.24160979  0.05751529  0.82943625    -0.46400
C85         C  0.20950012  0.11384065  0.79074333     0.75100
O86         O  0.24638581  0.10477884  0.85558028    -0.58300
O87         O  0.23145358  0.11634773  0.78087827    -0.48400
O88         O  0.25194004  0.13536863  0.82885499    -0.54700
C89         C  0.29976476  0.10886369  0.80260887     0.85300
O90         O  0.25525540  0.06023044  0.79114379    -0.56600
O91         O  0.20904115  0.10066591  0.81099887    -0.59900
In92       In  0.21340010  0.89109428  0.78006478     1.36900
C93         C  0.17362808  0.86005489  0.77829958     0.77800
O94         O  0.20256430  0.89308651  0.73847454    -0.60700
O95         O  0.23976162  0.87932643  0.74844156    -0.51600
C96         C  0.22190666  0.94055033  0.78730965     0.70400
O97         O  0.19971553  0.93090118  0.78917901    -0.46400
C98         C  0.23120817  0.86994291  0.82288794     0.75100
O99         O  0.17090582  0.88352534  0.78402728    -0.58300
O100        O  0.24275718  0.86788035  0.80166461    -0.48400
O101        O  0.19634514  0.85308136  0.77409877    -0.54700
C102        C  0.22308673  0.88259509  0.73107502     0.85300
O103        O  0.23920898  0.92507544  0.78067345    -0.56600
O104        O  0.21188716  0.88436987  0.82228328    -0.59900
In105      In  0.08882290  0.24945787  0.26687160     1.36900
C106        C  0.11921913  0.25374431  0.22682434     0.77800
O107        O  0.09029012  0.29200464  0.26098260    -0.60700
O108        O  0.10406784  0.27654223  0.29629259    -0.51600
C109        C  0.03887253  0.24387067  0.27373540     0.70400
O110        O  0.04946225  0.23908213  0.25251967    -0.46400
C111        C  0.10688565  0.20461229  0.28277177     0.75100
O112        O  0.09508612  0.25252438  0.22407342    -0.58300
O113        O  0.10847301  0.22469023  0.29617233    -0.48400
O114        O  0.12713530  0.25238250  0.24959492    -0.54700
C115        C  0.10199311  0.29598541  0.28184646     0.85300
O116        O  0.05363736  0.25261930  0.29071545    -0.56600
O117        O  0.09447328  0.20729370  0.26222848    -0.59900
In118      In  0.88170755  0.21984717  0.29789207     1.36900
C119        C  0.84900515  0.18101977  0.29872061     0.77800
O120        O  0.88020164  0.21292909  0.34023388    -0.60700
O121        O  0.86810429  0.24924269  0.32574919    -0.51600
C122        C  0.93216099  0.22474650  0.29454484     0.70400
O123        O  0.92104008  0.20333758  0.29218156    -0.46400
C124        C  0.86470737  0.23731295  0.25315390     0.75100
O125        O  0.87273235  0.17738225  0.29498766    -0.58300
O126        O  0.86218810  0.24972986  0.27374313    -0.48400
O127        O  0.84271303  0.20402350  0.30225914    -0.54700
C128        C  0.86981784  0.23432425  0.34485863     0.85300
O129        O  0.91752242  0.24318037  0.29985176    -0.56600
O130        O  0.87787389  0.21721249  0.25527055    -0.59900
In131      In  0.75417303  0.88823879  0.30372135     1.36900
C132        C  0.79664598  0.86036800  0.30275040     0.77800
O133        O  0.76150602  0.88651279  0.34590736    -0.60700
O134        O  0.72538153  0.87342379  0.33207606    -0.51600
C135        C  0.74456442  0.93795994  0.29862531     0.70400
O136        O  0.76630429  0.92966397  0.30543019    -0.46400
C137        C  0.73767444  0.86775400  0.26032884     0.75100
O138        O  0.79681281  0.88366521  0.29571456    -0.58300
O139        O  0.72720868  0.86314717  0.28171296    -0.48400
O140        O  0.77523098  0.85216991  0.31025937    -0.54700
C141        C  0.74082060  0.87484457  0.35073264     0.85300
O142        O  0.72770324  0.92087701  0.29575952    -0.56600
O143        O  0.75561102  0.88398324  0.26113418    -0.59900
In144      In  0.71899292  0.09449231  0.26846289     1.36900
C145        C  0.71908113  0.12448181  0.22743555     0.77800
O146        O  0.67654585  0.09266372  0.26197772    -0.60700
O147        O  0.69026607  0.10859846  0.29689116    -0.51600
C148        C  0.72575987  0.04492339  0.27747482     0.70400
O149        O  0.71842221  0.05320857  0.25586617    -0.46400
C150        C  0.76263291  0.11479382  0.28469571     0.75100
O151        O  0.72503920  0.10096057  0.22596155    -0.58300
O152        O  0.74191120  0.11675516  0.29715747    -0.48400
O153        O  0.71260661  0.13189094  0.24945123    -0.54700
C154        C  0.67128237  0.10453285  0.28234922     0.85300
O155        O  0.72888516  0.06190697  0.29429609    -0.56600
O156        O  0.76108873  0.10129860  0.26470477    -0.59900
In157      In  0.21302613  0.26150031  0.92892653     1.36900
C158        C  0.17412728  0.26186837  0.89677659     0.77800
O159        O  0.20680573  0.30383180  0.92788144    -0.60700
O160        O  0.24183847  0.28900431  0.91297364    -0.51600
C161        C  0.22091275  0.25786879  0.97874926     0.70400
O162        O  0.19899842  0.26287116  0.96958828    -0.46400
C163        C  0.22893845  0.21609292  0.91351263     0.75100
O164        O  0.17082798  0.25705295  0.92042449    -0.58300
O165        O  0.24200167  0.23637377  0.91067597    -0.48400
O166        O  0.19694494  0.26629572  0.89022981    -0.54700
C167        C  0.22715028  0.30811391  0.91543593     0.85300
O168        O  0.23856339  0.25586640  0.96240439    -0.56600
O169        O  0.20798292  0.21899052  0.92523368    -0.59900
In170      In  0.24569606  0.22857793  0.13528645     1.36900
C171        C  0.24698463  0.18504243  0.16135734     0.77800
O172        O  0.28803857  0.22302593  0.13373596    -0.60700
O173        O  0.27391560  0.25762721  0.14989736    -0.51600
C174        C  0.23927664  0.23826120  0.08581766     0.70400
O175        O  0.24789446  0.21712974  0.09391553    -0.46400
C176        C  0.20264992  0.24359083  0.15759931     0.75100
O177        O  0.23826149  0.18599357  0.13871509    -0.58300
O178        O  0.22353826  0.25568479  0.16022696    -0.48400
O179        O  0.25520216  0.20601760  0.16998583    -0.54700
C180        C  0.29304813  0.24333330  0.14581184     0.85300
O181        O  0.23437512  0.25442646  0.10299225    -0.56600
O182        O  0.20384037  0.22454074  0.14283481    -0.59900
In183      In  0.88621821  0.24330813  0.79631886     1.36900
C184        C  0.85576685  0.24229722  0.83669011     0.77800
O185        O  0.88577126  0.28504306  0.80611786    -0.60700
O186        O  0.87047202  0.27360697  0.77002803    -0.51600
C187        C  0.93613456  0.23996824  0.78922350     0.70400
O188        O  0.92596339  0.23711170  0.81102325    -0.46400
C189        C  0.87129919  0.19833088  0.77763979     0.75100
O190        O  0.87975878  0.23927274  0.83896270    -0.58300
O191        O  0.86756997  0.21913905  0.76566737    -0.48400
O192        O  0.84785756  0.24531882  0.81402956    -0.54700
C193        C  0.87366746  0.29147452  0.78612154     0.85300
O194        O  0.92087311  0.24597242  0.77144419    -0.56600
O195        O  0.88345429  0.20076681  0.79833947    -0.59900
In196      In  0.09379144  0.22008690  0.76870420     1.36900
C197        C  0.12622845  0.18140605  0.77085073     0.77800
O198        O  0.09502039  0.20938405  0.72754929    -0.60700
O199        O  0.10772082  0.24681293  0.73836941    -0.51600
C200        C  0.04359980  0.22444456  0.77137612     0.70400
O201        O  0.05504422  0.20379408  0.77674062    -0.46400
C202        C  0.10938612  0.24156400  0.81177165     0.75100
O203        O  0.10232562  0.17792279  0.77342308    -0.58300
O204        O  0.11291807  0.25196592  0.79014427    -0.48400
O205        O  0.13298569  0.20434738  0.76737547    -0.54700
C206        C  0.10607124  0.22998003  0.72101909     0.85300
O207        O  0.05784882  0.24245138  0.76368984    -0.56600
O208        O  0.09633635  0.22124637  0.81123824    -0.64700
In209      In  0.75823041  0.24886957  0.13551561     1.36900
C210        C  0.79779388  0.24995358  0.16725693     0.77800
O211        O  0.76589330  0.29102943  0.13340587    -0.60700
O212        O  0.72924449  0.27859818  0.14644207    -0.51600
C213        C  0.75222119  0.24082920  0.08561299     0.70400
O214        O  0.77313178  0.24888574  0.09489152    -0.46400
C215        C  0.74027395  0.20641372  0.15723625     0.75100
O216        O  0.80013680  0.24184808  0.14447177    -0.58300
O217        O  0.72838869  0.22754039  0.15813874    -0.48400
O218        O  0.77567228  0.25758866  0.17305134    -0.54700
C219        C  0.74478099  0.29705366  0.14350389     0.85300
O220        O  0.73455527  0.23762140  0.10176267    -0.56600
O221        O  0.76059509  0.20695369  0.14411458    -0.59900
In222      In  0.73014375  0.21211848  0.92828626     1.36900
C223        C  0.72927676  0.17055899  0.89952206     0.77800
O224        O  0.68751143  0.20605849  0.92856006    -0.60700
O225        O  0.70190988  0.24120238  0.91363279    -0.51600
C226        C  0.73634546  0.22040857  0.97809550     0.70400
O227        O  0.72903411  0.19896430  0.96950603    -0.46400
C228        C  0.77366460  0.22863863  0.90759905     0.75100
O229        O  0.73587148  0.16938099  0.92289035    -0.58300
O230        O  0.75289158  0.24099752  0.90603241    -0.48400
O231        O  0.72330349  0.19256559  0.89157978    -0.54700
C232        C  0.68271803  0.22669629  0.91683171     0.85300
O233        O  0.73973724  0.23741328  0.96124682    -0.56600
O234        O  0.77235647  0.20845735  0.92096659    -0.59900
In235      In  0.71687828  0.88810301  0.79721251     1.36900
C236        C  0.71596891  0.85587898  0.83661106     0.77800
O237        O  0.67496768  0.88690574  0.80595604    -0.60700
O238        O  0.68764974  0.87430868  0.76916168    -0.51600
C239        C  0.72227859  0.93815058  0.79044787     0.70400
O240        O  0.72725870  0.92732785  0.81158256    -0.46400
C241        C  0.76130084  0.87153179  0.77883665     0.75100
O242        O  0.71805997  0.87990077  0.83983494    -0.58300
O243        O  0.74034850  0.86829335  0.76705910    -0.48400
O244        O  0.71444562  0.84890970  0.81355559    -0.54700
C245        C  0.66943410  0.87576521  0.78514796     0.85300
O246        O  0.71271462  0.92370774  0.77363151    -0.56600
O247        O  0.75949418  0.88457405  0.79900521    -0.59900
In248      In  0.76086392  0.09218240  0.76757622     1.36900
C249        C  0.80723767  0.11256808  0.76229235     0.77800
O250        O  0.75028993  0.10155294  0.72664123    -0.60700
O251        O  0.73932807  0.12698686  0.75650637    -0.51600
C252        C  0.75039005  0.04235033  0.76718852     0.70400
O253        O  0.77298239  0.05086957  0.76759968    -0.46400
C254        C  0.74547807  0.10665535  0.81383805     0.75100
O255        O  0.79333427  0.10737918  0.74326892    -0.58300
O256        O  0.73142691  0.10842697  0.79420050    -0.48400
O257        O  0.79889519  0.10418324  0.78335889    -0.54700
C258        C  0.74023309  0.12275746  0.73270758     0.85300
O259        O  0.73344888  0.05922451  0.76441848    -0.56600
O260        O  0.76700778  0.09651581  0.80984308    -0.59900
In261      In  0.08971258  0.75841003  0.28897091     1.36900
C262        C  0.12422247  0.79563362  0.28705562     0.77800
O263        O  0.09062839  0.77225791  0.32927828    -0.60700
O264        O  0.10329000  0.73408882  0.32155110    -0.51600
C265        C  0.03923158  0.75294948  0.28605811     0.70400
O266        O  0.05061106  0.77309211  0.27860958    -0.46400
C267        C  0.10573813  0.73539876  0.24668169     0.75100
O268        O  0.10046387  0.80037158  0.28464202    -0.58300
O269        O  0.10773912  0.72513806  0.26861454    -0.48400
O270        O  0.12967795  0.77222201  0.28948361    -0.54700
C271        C  0.10149021  0.75222807  0.33756955     0.85300
O272        O  0.05363423  0.73620762  0.29593283    -0.56600
O273        O  0.09370736  0.75634004  0.24641164    -0.59900
In274      In  0.88030658  0.73230914  0.26471630     1.36900
C275        C  0.84810330  0.73053599  0.22554133     0.77800
O276        O  0.88029506  0.69047368  0.25562807    -0.60700
O277        O  0.86507044  0.70229859  0.29163353    -0.51600
C278        C  0.93091325  0.73579725  0.26995227     0.70400
O279        O  0.91964090  0.73999938  0.24890477    -0.46400
C280        C  0.86375412  0.77683218  0.28364283     0.75100
O281        O  0.87188304  0.73440644  0.22215416    -0.58300
O282        O  0.86291448  0.75611925  0.29630352    -0.48400
O283        O  0.84137421  0.72814138  0.24863301    -0.54700
C284        C  0.86823473  0.68426776  0.27572539     0.85300
O285        O  0.91630888  0.72882500  0.28795046    -0.56600
O286        O  0.87428795  0.77482137  0.26201555    -0.59900
In287      In  0.72254809  0.76601248  0.13856964     1.36900
C288        C  0.72429175  0.80308175  0.17282827     0.77800
O289        O  0.68160740  0.77860411  0.14017724    -0.60700
O290        O  0.69036715  0.73957050  0.14888676    -0.51600
C291        C  0.72691905  0.76206187  0.08823484     0.70400
O292        O  0.73150866  0.78285871  0.09978372    -0.46400
C293        C  0.76461828  0.74379796  0.15646125     0.75100
O294        O  0.72848705  0.80765418  0.14928258    -0.58300
O295        O  0.74260856  0.73405462  0.15939864    -0.48400
O296        O  0.71965746  0.77997178  0.17818131    -0.54700
C297        C  0.67379328  0.75727689  0.14876185     0.85300
O298        O  0.71934374  0.74391283  0.10238178    -0.56600
O299        O  0.76511703  0.76349945  0.14242546    -0.59900
In300      In  0.75184144  0.73379287  0.93135548     1.36900
C301        C  0.79074090  0.73380836  0.89872847     0.77800
O302        O  0.76221719  0.69203649  0.93330023    -0.60700
O303        O  0.72454768  0.70217577  0.92136668    -0.51600
C304        C  0.74547193  0.74208291  0.98118678     0.70400
O305        O  0.76723883  0.74356081  0.97059327    -0.46400
C306        C  0.73159283  0.77534115  0.90986931     0.75100
O307        O  0.79421978  0.73837754  0.92235878    -0.58300
O308        O  0.72127011  0.75346184  0.90819184    -0.48400
O309        O  0.76787593  0.72905071  0.89258455    -0.54700
C310        C  0.74102720  0.68462380  0.92414084     0.85300
O311        O  0.72749384  0.73548843  0.96642797    -0.56600
O312        O  0.75097848  0.77614409  0.92427243    -0.59900
In313      In  0.22968131  0.25560291  0.63285936     1.36900
C314        C  0.22764604  0.29599643  0.66320811     0.77800
O315        O  0.18755639  0.26283790  0.63294616    -0.60700
O316        O  0.20149287  0.22814593  0.64967644    -0.51600
C317        C  0.23329358  0.24780001  0.58278181     0.70400
O318        O  0.23643866  0.26968684  0.59264908    -0.46400
C319        C  0.27372357  0.23816118  0.65123585     0.75100
O320        O  0.23106127  0.29851995  0.63925631    -0.58300
O321        O  0.25312965  0.22545613  0.65247168    -0.48400
O322        O  0.22571612  0.27320129  0.67098497    -0.54700
C323        C  0.18268668  0.24301782  0.64609024     0.85300
O324        O  0.22732764  0.23036544  0.59848268    -0.56600
O325        O  0.27207488  0.25881828  0.63873750    -0.59900
In326      In  0.26208235  0.21949530  0.42699839     1.36900
C327        C  0.30077010  0.22032009  0.39455440     0.77800
O328        O  0.27292783  0.17818833  0.42380484    -0.60700
O329        O  0.23499770  0.18944165  0.41318846    -0.51600
C330        C  0.25520632  0.22464537  0.47701895     0.70400
O331        O  0.27612180  0.23039553  0.46618202    -0.46400
C332        C  0.24244808  0.26307202  0.40976271     0.75100
O333        O  0.30469265  0.22091383  0.41858428    -0.58300
O334        O  0.23113108  0.24179298  0.40701681    -0.48400
O335        O  0.27756023  0.21966407  0.38791843    -0.54700
C336        C  0.25201831  0.17215411  0.41309138     0.85300
O337        O  0.23874947  0.21438233  0.46259112    -0.56600
O338        O  0.26269977  0.26204776  0.42287843    -0.59900
In339      In  0.22136205  0.59556192  0.75643852     1.36900
C340        C  0.22279725  0.62972386  0.71918160     0.77800
O341        O  0.18007340  0.59875550  0.74558179    -0.60700
O342        O  0.19107748  0.60873482  0.78371880    -0.51600
C343        C  0.22483931  0.54513754  0.76179842     0.70400
O344        O  0.22849988  0.55621410  0.74049023    -0.46400
C345        C  0.26554929  0.61167270  0.77544603     0.75100
O346        O  0.22524868  0.60598535  0.71443337    -0.58300
O347        O  0.24463888  0.61411844  0.78746693    -0.48400
O348        O  0.21993821  0.63529131  0.74248677    -0.54700
C349        C  0.17371735  0.60870115  0.76672628     0.85300
O350        O  0.21793439  0.55975047  0.77971914    -0.56600
O351        O  0.26387359  0.59914515  0.75491639    -0.59900
In352      In  0.25632003  0.38891168  0.78720630     1.36900
C353        C  0.29700947  0.35885379  0.79009370     0.77800
O354        O  0.26377226  0.39008950  0.82939477    -0.60700
O355        O  0.22820822  0.37466006  0.81623185    -0.51600
C356        C  0.24778016  0.43870003  0.78123100     0.70400
O357        O  0.26985129  0.42905858  0.77876992    -0.46400
C358        C  0.23922417  0.36849246  0.74393971     0.75100
O359        O  0.29924961  0.38250560  0.78479922    -0.58300
O360        O  0.22731213  0.36652853  0.76492637    -0.48400
O361        O  0.27440147  0.35128362  0.79388476    -0.54700
C362        C  0.24322033  0.37840565  0.83492320     0.85300
O363        O  0.23052266  0.42303180  0.78771215    -0.56600
O364        O  0.25886876  0.38253811  0.74479047    -0.59900
In365      In  0.58781048  0.22935111  0.30162768     1.36900
C366        C  0.61989716  0.22980900  0.34087213     0.77800
O367        O  0.58683866  0.18861815  0.31458098    -0.60700
O368        O  0.59931077  0.19663851  0.27641105    -0.51600
C369        C  0.53807808  0.23473833  0.29441124     0.70400
O370        O  0.54858326  0.23915256  0.31581808    -0.46400
C371        C  0.60620902  0.27135539  0.27935873     0.75100
O372        O  0.59610108  0.23363388  0.34408882    -0.58300
O373        O  0.61014866  0.24912086  0.27064467    -0.48400
O374        O  0.62670348  0.22700699  0.31788633    -0.54700
C375        C  0.59693706  0.18027518  0.29425789     0.85300
O376        O  0.55292144  0.22635708  0.27730085    -0.56600
O377        O  0.59145579  0.27205443  0.29848497    -0.59900
In378      In  0.38255955  0.26364681  0.26714411     1.36900
C379        C  0.35114123  0.30304555  0.26876087     0.77800
O380        O  0.38189142  0.27633094  0.22625783    -0.60700
O381        O  0.36873274  0.23859224  0.23546877    -0.51600
C382        C  0.43235770  0.25671784  0.27199678     0.70400
O383        O  0.42159119  0.27745198  0.27826902    -0.46400
C384        C  0.36529366  0.24107735  0.30926424     0.75100
O385        O  0.37520392  0.30614605  0.27040426    -0.58300
O386        O  0.36283431  0.23117717  0.28731280    -0.48400
O387        O  0.34374680  0.28010015  0.26694665    -0.54700
C388        C  0.37075624  0.25616109  0.21877925     0.85300
O389        O  0.41777150  0.24024527  0.26200405    -0.56600
O390        O  0.37792140  0.26169134  0.30964310    -0.59900
In391      In  0.70265613  0.24525598  0.63509623     1.36900
C392        C  0.65630184  0.24517358  0.65591893     0.77800
O393        O  0.71061340  0.20284892  0.63942758    -0.60700
O394        O  0.71741874  0.22787851  0.67084912    -0.51600
C395        C  0.71264899  0.24540426  0.58509853     0.70400
O396        O  0.69081179  0.25073121  0.59398721    -0.46400
C397        C  0.72734176  0.28638212  0.65187229     0.75100
O398        O  0.66524392  0.22562252  0.64500171    -0.58300
O399        O  0.73586372  0.26389515  0.65446196    -0.48400
O400        O  0.66909766  0.26535563  0.65236443    -0.54700
C401        C  0.71685071  0.20513849  0.66275819     0.85300
O402        O  0.72880468  0.23871928  0.60173340    -0.56600
O403        O  0.70689460  0.28795708  0.63904503    -0.59900
In404      In  0.74521108  0.26210365  0.42817421     1.36900
C405        C  0.74404178  0.29875071  0.39302095     0.77800
O406        O  0.78645274  0.27376830  0.42693557    -0.60700
O407        O  0.77660060  0.23500841  0.41808567    -0.51600
C408        C  0.73888013  0.25889540  0.47843687     0.70400
O409        O  0.73347126  0.27890370  0.46582096    -0.46400
C410        C  0.70232105  0.24078503  0.41145365     0.75100
O411        O  0.74197809  0.30383439  0.41670723    -0.58300
O412        O  0.72391091  0.23012876  0.40866500    -0.48400
O413        O  0.74661607  0.27530706  0.38788982    -0.54700
C414        C  0.79375363  0.25223679  0.41858168     0.85300
O415        O  0.74920723  0.24127658  0.46556194    -0.56600
O416        O  0.70271889  0.26086256  0.42476025    -0.59900
In417      In  0.25237593  0.76422935  0.63944415     1.36900
C418        C  0.29413745  0.76311156  0.66828337     0.77800
O419        O  0.25802716  0.80678012  0.64038807    -0.60700
O420        O  0.22298359  0.79164185  0.65483108    -0.51600
C421        C  0.24398260  0.75970229  0.58952367     0.70400
O422        O  0.26553366  0.76647861  0.59834141    -0.46400
C423        C  0.23655756  0.71932854  0.65747356     0.75100
O424        O  0.29499426  0.75824082  0.64452089    -0.58300
O425        O  0.22462205  0.73999183  0.66161702    -0.48400
O426        O  0.27233702  0.76910647  0.67666155    -0.54700
C427        C  0.23738782  0.81101316  0.65226272     0.85300
O428        O  0.22685291  0.75625399  0.60620390    -0.56600
O429        O  0.25586540  0.72166009  0.64310313    -0.59900
In430      In  0.22096103  0.73195958  0.43249828     1.36900
C431        C  0.22218276  0.68875459  0.40587078     0.77800
O432        O  0.17879418  0.72475070  0.43100277    -0.60700
O433        O  0.19301233  0.75966923  0.41514738    -0.51600
C434        C  0.22419340  0.74173982  0.48229062     0.70400
O435        O  0.21750967  0.72005985  0.47383810    -0.46400
C436        C  0.26487074  0.74816791  0.41252306     0.75100
O437        O  0.23006790  0.68956948  0.42883528    -0.58300
O438        O  0.24377046  0.75932112  0.40829025    -0.48400
O439        O  0.21375877  0.70965335  0.39727866    -0.54700
C440        C  0.17421956  0.74447371  0.41768384     0.85300
O441        O  0.22795801  0.75856542  0.46529950    -0.56600
O442        O  0.26355310  0.72977483  0.42821691    -0.59900
In443      In  0.59220853  0.26341100  0.79809029     1.36900
C444        C  0.62694941  0.30004200  0.80094864     0.77800
O445        O  0.59183701  0.26692664  0.84072749    -0.60700
O446        O  0.60858741  0.23345726  0.82427093    -0.51600
C447        C  0.54232206  0.25694450  0.79255673     0.70400
O448        O  0.55182109  0.27848233  0.79865382    -0.46400
C449        C  0.60346580  0.25333573  0.74980783     0.75100
O450        O  0.60318129  0.30518012  0.79957768    -0.58300
O451        O  0.60686722  0.23692421  0.76751157    -0.48400
O452        O  0.63239311  0.27647456  0.80063996    -0.54700
C453        C  0.60507467  0.24693125  0.84414602     0.85300
O454        O  0.55822411  0.23878159  0.79131477    -0.56600
O455        O  0.59414948  0.27439267  0.75712991    -0.59900
In456      In  0.38573694  0.23041910  0.76293703     1.36900
C457        C  0.35613559  0.22667941  0.72188161     0.77800
O458        O  0.38626027  0.18747472  0.76007757    -0.60700
O459        O  0.37189019  0.20414467  0.79427568    -0.51600
C460        C  0.43562367  0.23840927  0.76992985     0.70400
O461        O  0.42684595  0.22950993  0.74917974    -0.46400
C462        C  0.36513938  0.27469486  0.77695652     0.75100
O463        O  0.37954414  0.23297902  0.72001414    -0.58300
O464        O  0.36357335  0.25459276  0.79049609    -0.48400
O465        O  0.34855891  0.22219281  0.74436626    -0.54700
C466        C  0.37478260  0.18405368  0.78111877     0.85300
O467        O  0.41902671  0.24237032  0.78695896    -0.56600
O468        O  0.37806959  0.27222507  0.75667666    -0.59900
In469      In  0.71796722  0.59319177  0.80611887     1.36900
C470        C  0.67689414  0.62280765  0.80529892     0.77800
O471        O  0.70808182  0.59323420  0.84782678    -0.60700
O472        O  0.74470149  0.60758196  0.83633508    -0.51600
C473        C  0.72732860  0.54347985  0.80214919     0.70400
O474        O  0.70486467  0.55256591  0.80166110    -0.46400
C475        C  0.73477509  0.61094957  0.76129504     0.75100
O476        O  0.67546908  0.59902289  0.80051570    -0.58300
O477        O  0.74592888  0.61599162  0.78223781    -0.48400
O478        O  0.69902377  0.63089455  0.81068608    -0.54700
C479        C  0.72843431  0.60479120  0.85416544     0.85300
O480        O  0.74480126  0.55976797  0.80608280    -0.56600
O481        O  0.71610831  0.59573615  0.76338851    -0.59900
In482      In  0.75437334  0.38809885  0.76807038     1.36900
C483        C  0.75209421  0.36212982  0.72473523     0.77800
O484        O  0.79545836  0.38416359  0.75592029    -0.60700
O485        O  0.78499451  0.37185352  0.79345133    -0.51600
C486        C  0.74932635  0.43799270  0.77744981     0.70400
O487        O  0.74168047  0.42769079  0.75699512    -0.46400
C488        C  0.71256035  0.36745168  0.78892957     0.75100
O489        O  0.75162831  0.38642268  0.72463678    -0.58300
O490        O  0.73445942  0.36494240  0.79892514    -0.48400
O491        O  0.75315449  0.35193328  0.74662582    -0.54700
C492        C  0.80195111  0.37240399  0.77611525     0.85300
O493        O  0.76109897  0.42308609  0.79242528    -0.56600
O494        O  0.71203465  0.38199497  0.76965139    -0.59900
In495      In  0.58872991  0.74651998  0.76145828     1.36900
C496        C  0.61998985  0.74714406  0.72175055     0.77800
O497        O  0.58819244  0.78810495  0.75050558    -0.60700
O498        O  0.60195623  0.77768557  0.78761834    -0.51600
C499        C  0.53876016  0.74103033  0.76861646     0.70400
O500        O  0.54933252  0.73593638  0.74744800    -0.46400
C501        C  0.60757550  0.70384254  0.78212214     0.75100
O502        O  0.59621846  0.74282630  0.71890295    -0.58300
O503        O  0.60907334  0.72534274  0.79313909    -0.48400
O504        O  0.62713044  0.75073392  0.74453302    -0.54700
C505        C  0.59899748  0.79519960  0.77100600     0.85300
O506        O  0.55357139  0.74987182  0.78551448    -0.56600
O507        O  0.59519427  0.70416601  0.76139867    -0.59900
In508      In  0.38089041  0.71907755  0.79283286     1.36900
C509        C  0.34962930  0.67922999  0.79180963     0.77800
O510        O  0.37918403  0.70809263  0.83434520    -0.60700
O511        O  0.36683832  0.74549993  0.82352638    -0.51600
C512        C  0.43136664  0.72441512  0.78892008     0.70400
O513        O  0.42020126  0.70321257  0.78536120    -0.46400
C514        C  0.36303566  0.74020618  0.74986599     0.75100
O515        O  0.37345831  0.67660908  0.78790791    -0.58300
O516        O  0.36110233  0.75099377  0.77142020    -0.48400
O517        O  0.34235508  0.70189201  0.79567261    -0.54700
C518        C  0.36810710  0.72856101  0.84091206     0.85300
O519        O  0.41673178  0.74243219  0.79551798    -0.56600
O520        O  0.37555801  0.71958769  0.75025767    -0.59900
In521      In  0.74672256  0.59287987  0.29647334     1.36900
C522        C  0.74550496  0.62307440  0.33701334     0.77800
O523        O  0.78816923  0.59425255  0.30770264    -0.60700
O524        O  0.77760035  0.60684468  0.27024156    -0.51600
C525        C  0.74146668  0.54285943  0.28922669     0.70400
O526        O  0.73651417  0.55343447  0.31040022    -0.46400
C527        C  0.70429305  0.61183545  0.27565832     0.75100
O528        O  0.74316397  0.59897652  0.33930997    -0.58300
O529        O  0.72620053  0.61533056  0.26592327    -0.48400
O530        O  0.74799764  0.63109852  0.31436373    -0.54700
C531        C  0.79488480  0.60541129  0.28722074     0.85300
O532        O  0.75051015  0.55771137  0.27235048    -0.56600
O533        O  0.70404552  0.59699590  0.29475169    -0.59900
In534      In  0.71395695  0.38610880  0.26305046     1.36900
C535        C  0.67378591  0.35514577  0.26134623     0.77800
O536        O  0.70565328  0.38508398  0.22105306    -0.60700
O537        O  0.74258741  0.37315841  0.23390559    -0.51600
C538        C  0.72077576  0.43627680  0.26814960     0.70400
O539        O  0.69935839  0.42560306  0.27208596    -0.46400
C540        C  0.73139252  0.36607857  0.30655989     0.75100
O541        O  0.67096063  0.37915912  0.26386221    -0.58300
O542        O  0.74285757  0.36337942  0.28542315    -0.48400
O543        O  0.69668337  0.34775914  0.25974633    -0.54700
C544        C  0.72676213  0.37459875  0.21555074     0.85300
O545        O  0.73826605  0.42137592  0.26077600    -0.56600
O546        O  0.71244290  0.38099300  0.30571527    -0.59900
In547      In  0.74831547  0.71179017  0.63842185     1.36900
C548        C  0.74815549  0.67367299  0.67208621     0.77800
O549        O  0.79050467  0.70455947  0.63761573    -0.60700
O550        O  0.77730001  0.74100314  0.65043900    -0.51600
C551        C  0.74225856  0.71767658  0.58847651     0.70400
O552        O  0.74868855  0.69630834  0.59809262    -0.46400
C553        C  0.70455709  0.73022438  0.65570736     0.75100
O554        O  0.74137307  0.67012110  0.64899831    -0.58300
O555        O  0.72561399  0.74204005  0.65833897    -0.48400
O556        O  0.75492921  0.69624525  0.67728845    -0.54700
C557        C  0.79594955  0.72573231  0.64798677     0.85300
O558        O  0.73999951  0.73571382  0.60429281    -0.56600
O559        O  0.70597150  0.70954634  0.64329444    -0.59900
In560      In  0.71517007  0.74619754  0.43186416     1.36900
C561        C  0.67363795  0.74783727  0.40283855     0.77800
O562        O  0.70751494  0.78825236  0.43385966    -0.60700
O563        O  0.74354158  0.77616689  0.41908086    -0.51600
C564        C  0.72294883  0.73773120  0.48151157     0.70400
O565        O  0.70156876  0.74501700  0.47275280    -0.46400
C566        C  0.73189912  0.70420102  0.40896015     0.75100
O567        O  0.67278542  0.73907218  0.42552282    -0.58300
O568        O  0.74383073  0.72531203  0.40773493    -0.48400
O569        O  0.69534817  0.75557281  0.39565912    -0.54700
C570        C  0.72796055  0.79441852  0.42246079     0.85300
O571        O  0.74034811  0.73551437  0.46492332    -0.56600
O572        O  0.71226350  0.70445903  0.42306244    -0.59900
In573      In  0.25695530  0.59413536  0.28503487     1.36900
C574        C  0.29592884  0.62629237  0.28273354     0.77800
O575        O  0.26797907  0.59347386  0.24368544    -0.60700
O576        O  0.23041122  0.60614876  0.25369499    -0.51600
C577        C  0.24921777  0.54419775  0.29051998     0.70400
O578        O  0.27082431  0.55449927  0.29454601    -0.46400
C579        C  0.23823370  0.61421233  0.32773430     0.75100
O580        O  0.29949534  0.60253045  0.28676424    -0.58300
O581        O  0.22684229  0.61592226  0.30639504    -0.48400
O582        O  0.27281715  0.63297861  0.28069933    -0.54700
C583        C  0.24725200  0.60366424  0.23638801     0.85300
O584        O  0.23197942  0.55942258  0.28306585    -0.56600
O585        O  0.25803017  0.60037150  0.32746845    -0.59900
In586      In  0.22517729  0.38574158  0.30923164     1.36900
C587        C  0.22704626  0.35098183  0.34612562     0.77800
O588        O  0.18393312  0.38174297  0.32028201    -0.60700
O589        O  0.19476303  0.37297821  0.28185787    -0.51600
C590        C  0.22882022  0.43639666  0.30588104     0.70400
O591        O  0.23499862  0.42422689  0.32594678    -0.46400
C592        C  0.26805828  0.37053366  0.28698621     0.75100
O593        O  0.22807113  0.37474815  0.35119191    -0.58300
O594        O  0.24636186  0.36828202  0.27646192    -0.48400
O595        O  0.22569055  0.34563129  0.32264276    -0.54700
C596        C  0.17749702  0.37233854  0.29889928     0.85300
O597        O  0.21945069  0.42273574  0.28830308    -0.56600
O598        O  0.26791277  0.38257023  0.30788905    -0.59900
In599      In  0.59005558  0.72148728  0.27194014     1.36900
C600        C  0.62179712  0.68230634  0.26598422     0.77800
O601        O  0.58862605  0.71834788  0.22916506    -0.60700
O602        O  0.60464027  0.75213797  0.24556553    -0.51600
C603        C  0.54007796  0.72791659  0.27912162     0.70400
O604        O  0.55029278  0.70594129  0.27939474    -0.46400
C605        C  0.60744037  0.73604289  0.31745678     0.75100
O606        O  0.59782140  0.67883658  0.26824924    -0.58300
O607        O  0.60885627  0.75023076  0.29781898    -0.48400
O608        O  0.62890014  0.70538214  0.26713727    -0.54700
C609        C  0.60065235  0.73911578  0.22553617     0.85300
O610        O  0.55528090  0.74601850  0.27396914    -0.56600
O611        O  0.59631608  0.71488944  0.31380443    -0.59900
In612      In  0.38372354  0.75472993  0.30670554     1.36900
C613        C  0.35077034  0.75772250  0.34513366     0.77800
O614        O  0.38476008  0.79679821  0.31450005    -0.60700
O615        O  0.37158416  0.78410750  0.27789065    -0.51600
C616        C  0.43374884  0.74846276  0.30096685     0.70400
O617        O  0.42265062  0.74422911  0.32210833    -0.46400
C618        C  0.36477779  0.71095713  0.28929581     0.75100
O619        O  0.37457628  0.75492010  0.34930712    -0.58300
O620        O  0.36246286  0.73180643  0.27708118    -0.48400
O621        O  0.34456117  0.75868078  0.32182595    -0.54700
C622        C  0.37430992  0.80257470  0.29337624     0.85300
O623        O  0.41942246  0.75669550  0.28330424    -0.56600
O624        O  0.37852942  0.71236716  0.30909990    -0.59900
C625        C  0.50181651  0.75630476  0.27791782    -0.21100
C626        C  0.51272527  0.73264536  0.28482261    -0.09200
C627        C  0.49759085  0.71451830  0.29802887     0.29700
C628        C  0.47207459  0.72018239  0.30419493    -0.21100
C629        C  0.46117254  0.74361929  0.29670249    -0.09200
C630        C  0.47619901  0.76163369  0.28346171     0.29700
F631        F  0.46617178  0.78454635  0.27621426    -0.19700
H632        H  0.51310173  0.77068080  0.26791862     0.18100
H633        H  0.46058258  0.70597100  0.31418808     0.18100
F634        F  0.50746367  0.69152944  0.30522581    -0.19700
C635        C  0.31191050  0.66776647  0.26599283    -0.21100
C636        C  0.31653072  0.64547990  0.28046946    -0.09200
C637        C  0.33939866  0.64337657  0.29445858     0.29700
C638        C  0.35619300  0.66430781  0.29575993    -0.21100
C639        C  0.35060282  0.68733859  0.28275282    -0.09200
C640        C  0.32885748  0.68845914  0.26686892     0.29700
F641        F  0.32282240  0.71017887  0.25378224    -0.19700
H642        H  0.29451397  0.66958074  0.25474066     0.18100
H643        H  0.37287942  0.66296818  0.30803477     0.18100
F644        F  0.34449477  0.62200907  0.30847385    -0.19700
C645        C  0.25312396  0.47626605  0.31620110    -0.21100
C646        C  0.23321932  0.46419851  0.30266037    -0.09200
C647        C  0.21873179  0.47859693  0.28501387     0.29700
C648        C  0.22394778  0.50465930  0.28130678    -0.21100
C649        C  0.24414760  0.51661658  0.29451237    -0.09200
C650        C  0.25876296  0.50218416  0.31199414     0.29700
F651        F  0.27813669  0.51323549  0.32540864    -0.19700
H652        H  0.26469381  0.46547168  0.32967053     0.18100
H653        H  0.21238438  0.51544982  0.26779163     0.18100
F654        F  0.19939772  0.46756030  0.27151554    -0.19700
C655        C  0.65112708  0.76716295  0.36579844    -0.21100
C656        C  0.65181235  0.74824727  0.38501281    -0.09200
C657        C  0.63433523  0.72780317  0.38408675     0.29700
C658        C  0.61838320  0.72493268  0.36271473    -0.21100
C659        C  0.61947488  0.74257141  0.34224580    -0.09200
C660        C  0.63489326  0.76457977  0.34469088     0.29700
F661        F  0.63570068  0.78267934  0.32593031    -0.19700
H662        H  0.66425648  0.78330921  0.36644289     0.18100
H663        H  0.60637604  0.70800172  0.36146218     0.18100
F664        F  0.63448354  0.70929602  0.40244990    -0.19700
C665        C  0.74726350  0.71527730  0.51616929    -0.21100
C666        C  0.72740790  0.73202706  0.50888804    -0.09200
C667        C  0.71218090  0.74330978  0.52796127     0.29700
C668        C  0.71722573  0.73840403  0.55380507    -0.21100
C669        C  0.73701542  0.72167326  0.56105726    -0.09200
C670        C  0.75186478  0.70985198  0.54207399     0.29700
F671        F  0.77137951  0.69392696  0.54860565    -0.19700
H672        H  0.75919216  0.70629640  0.50174298     0.18100
H673        H  0.70554092  0.74765520  0.56826267     0.18100
F674        F  0.69294207  0.75966678  0.52169607    -0.19700
C675        C  0.68467672  0.64921238  0.25375688    -0.21100
C676        C  0.68135967  0.62623129  0.26738471    -0.09200
C677        C  0.65674626  0.61982259  0.27658804     0.29700
C678        C  0.63652800  0.63736795  0.27431104    -0.21100
C679        C  0.64072207  0.66149885  0.26308117    -0.09200
C680        C  0.66464094  0.66676860  0.25170125     0.29700
F681        F  0.66907066  0.68948889  0.23967900    -0.19700
H682        H  0.70337497  0.65452214  0.24627910     0.18100
H683        H  0.61814882  0.63280258  0.28290098     0.18100
F684        F  0.65259378  0.59728065  0.28902159    -0.19700
C685        C  0.76053126  0.66334683  0.35679452    -0.21100
C686        C  0.74533414  0.64117539  0.35852808    -0.09200
C687        C  0.72810536  0.63844064  0.37899160     0.29700
C688        C  0.72494665  0.65853168  0.39643167    -0.21100
C689        C  0.73903203  0.68145716  0.39374806    -0.09200
C690        C  0.75761516  0.68327970  0.37429597     0.29700
F691        F  0.77179752  0.70490891  0.37107971    -0.19700
H692        H  0.77406586  0.66566685  0.34113365     0.18100
H693        H  0.71051585  0.65665036  0.41126492     0.18100
F694        F  0.71282384  0.61741442  0.38084004    -0.19700
C695        C  0.74969994  0.50283219  0.26459559    -0.21100
C696        C  0.73631624  0.51550943  0.28414123    -0.09200
C697        C  0.71714575  0.50218963  0.29774878     0.29700
C698        C  0.71157679  0.47663872  0.29181658    -0.21100
C699        C  0.72540905  0.46379653  0.27270717    -0.09200
C700        C  0.74457195  0.47710495  0.25910833     0.29700
F701        F  0.75808493  0.46536134  0.24027432    -0.19700
H702        H  0.76437141  0.51281569  0.25369158     0.18100
H703        H  0.69681765  0.46667507  0.30260430     0.18100
F704        F  0.70341366  0.51399164  0.31638744    -0.19700
C705        C  0.68173086  0.75814876  0.68653047    -0.21100
C706        C  0.68061111  0.73876085  0.66800917    -0.09200
C707        C  0.65736754  0.72541929  0.66425489     0.29700
C708        C  0.63649127  0.72984746  0.68048488    -0.21100
C709        C  0.63874624  0.74727351  0.70074537    -0.09200
C710        C  0.66109642  0.76223887  0.70295290     0.29700
F711        F  0.66355526  0.77980915  0.72196716    -0.19700
H712        H  0.69926586  0.76891734  0.68959367     0.18100
H713        H  0.61934672  0.71824356  0.67846228     0.18100
F714        F  0.65533250  0.70694816  0.64608450    -0.19700
C715        C  0.49768021  0.75420828  0.78862304    -0.21100
C716        C  0.51135891  0.73665845  0.77365100    -0.09200
C717        C  0.49896258  0.71450633  0.76466069     0.29700
C718        C  0.47310232  0.71021651  0.77039581    -0.21100
C719        C  0.45914159  0.72816607  0.78475871    -0.09200
C720        C  0.47170828  0.75025392  0.79387710     0.29700
F721        F  0.45896947  0.76802257  0.80790400    -0.19700
H722        H  0.50706345  0.77126696  0.79592642     0.18100
H723        H  0.46386572  0.69306077  0.76318647     0.18100
F724        F  0.51203174  0.69669423  0.75098960    -0.19700
C725        C  0.72548681  0.61977750  0.71506712    -0.21100
C726        C  0.74151337  0.62323486  0.73655201    -0.09200
C727        C  0.76189789  0.64082386  0.73487000     0.29700
C728        C  0.76483714  0.65599138  0.71295202    -0.21100
C729        C  0.74773679  0.65381017  0.69225284    -0.09200
C730        C  0.72851908  0.63495539  0.69305500     0.29700
F731        F  0.71133025  0.63274996  0.67362708    -0.19700
H732        H  0.70962214  0.60636545  0.71584248     0.18100
H733        H  0.77994750  0.67033906  0.71259325     0.18100
F734        F  0.77816105  0.64440785  0.75486873    -0.19700
C735        C  0.63729218  0.63770307  0.78346340    -0.21100
C736        C  0.65506830  0.64053595  0.80338170    -0.09200
C737        C  0.65412235  0.66254892  0.81886307     0.29700
C738        C  0.63710400  0.68237643  0.81300772    -0.21100
C739        C  0.62095344  0.68066034  0.79153950    -0.09200
C740        C  0.62040755  0.65762752  0.77742066     0.29700
F741        F  0.60483814  0.65493684  0.75673835    -0.19700
H742        H  0.63776272  0.62084783  0.77134360     0.18100
H743        H  0.63765740  0.69971582  0.82442129     0.18100
F744        F  0.67041699  0.66534779  0.83898512    -0.19700
C745        C  0.71551134  0.50185467  0.78231987    -0.21100
C746        C  0.73281261  0.51619389  0.79709784    -0.09200
C747        C  0.75575405  0.50463726  0.80540815     0.29700
C748        C  0.76100850  0.47907483  0.79915029    -0.21100
C749        C  0.74395477  0.46500508  0.78380242    -0.09200
C750        C  0.72111746  0.47662657  0.77542903     0.29700
F751        F  0.70388741  0.46341616  0.76107546    -0.19700
H752        H  0.69783390  0.51040647  0.77554242     0.18100
H753        H  0.77861471  0.47038639  0.80593327     0.18100
F754        F  0.77298159  0.51792874  0.81969277    -0.19700
C755        C  0.67123910  0.31301452  0.81275218    -0.21100
C756        C  0.64735640  0.31958953  0.80213375    -0.09200
C757        C  0.64435281  0.34367008  0.79044085     0.29700
C758        C  0.66540065  0.36015212  0.78801947    -0.21100
C759        C  0.68969494  0.35289790  0.79720172    -0.09200
C760        C  0.69225998  0.32950231  0.81043055     0.29700
F761        F  0.71545465  0.32153008  0.81916020    -0.19700
H762        H  0.67392606  0.29450766  0.82192746     0.18100
H763        H  0.66301616  0.37801362  0.77762199     0.18100
F764        F  0.62176215  0.35034048  0.77938020    -0.19700
C765        C  0.50789359  0.23266324  0.77012647    -0.21100
C766        C  0.51497881  0.25303585  0.78628885    -0.09200
C767        C  0.49586628  0.26935033  0.79583191     0.29700
C768        C  0.47006503  0.26453902  0.79020571    -0.21100
C769        C  0.46300211  0.24394626  0.77434807    -0.09200
C770        C  0.48217614  0.22832525  0.76389031     0.29700
F771        F  0.47599538  0.20826225  0.74854866    -0.19700
H772        H  0.52236968  0.22005622  0.76220530     0.18100
H773        H  0.45551240  0.27694611  0.79827230     0.18100
F774        F  0.50201852  0.28942185  0.81116819    -0.19700
C775        C  0.28720378  0.77026195  0.37668507    -0.21100
C776        C  0.28869386  0.75466266  0.39857203    -0.09200
C777        C  0.31228003  0.74295445  0.40475824     0.29700
C778        C  0.33333334  0.74541367  0.38820118    -0.21100
C779        C  0.33100251  0.75931206  0.36525571    -0.09200
C780        C  0.30804281  0.77248732  0.36010471     0.29700
F781        F  0.30538822  0.78675471  0.33843286    -0.19700
H782        H  0.26936903  0.77962492  0.37154379     0.18100
H783        H  0.35089475  0.73519491  0.39253211     0.18100
F784        F  0.31466362  0.72819536  0.42611664    -0.19700
C785        C  0.20614619  0.66429585  0.36857575    -0.21100
C786        C  0.22321086  0.66593019  0.38934354    -0.09200
C787        C  0.24293899  0.64780377  0.39164099     0.29700
C788        C  0.24654930  0.62953673  0.37234408    -0.21100
C789        C  0.23060642  0.62917890  0.35053335    -0.09200
C790        C  0.20971201  0.64613503  0.34934311     0.29700
F791        F  0.19371251  0.64640925  0.32880621    -0.19700
H792        H  0.19067549  0.67802180  0.36655298     0.18100
H793        H  0.26284941  0.61675871  0.37369278     0.18100
F794        F  0.26005949  0.64918551  0.41120270    -0.19700
C795        C  0.31835502  0.77746826  0.70660350    -0.21100
C796        C  0.31612615  0.76064893  0.68575973    -0.09200
C797        C  0.33220243  0.73917232  0.68444299     0.29700
C798        C  0.34897385  0.73369465  0.70465391    -0.21100
C799        C  0.34988440  0.74949145  0.72647144    -0.09200
C800        C  0.33521984  0.77210801  0.72675270     0.29700
F801        F  0.33593976  0.78821087  0.74713745    -0.19700
H802        H  0.30604907  0.79415021  0.70787492     0.18100
H803        H  0.35997289  0.71610640  0.70396855     0.18100
F804        F  0.32977736  0.72208510  0.66500382    -0.19700
C805        C  0.21941961  0.73846774  0.55462073    -0.21100
C806        C  0.23895884  0.75551549  0.56202321    -0.09200
C807        C  0.25326361  0.76825003  0.54303134     0.29700
C808        C  0.24775620  0.76420237  0.51710661    -0.21100
C809        C  0.22848897  0.74685270  0.50973071    -0.09200
C810        C  0.21438535  0.73390285  0.52870833     0.29700
F811        F  0.19547604  0.71721170  0.52222580    -0.19700
H812        H  0.20821859  0.72835469  0.56898056     0.18100
H813        H  0.25899676  0.77421699  0.50271114     0.18100
F814        F  0.27223141  0.78487894  0.54949592    -0.19700
C815        C  0.75585109  0.31279752  0.34912955    -0.21100
C816        C  0.74342881  0.31812375  0.37238447    -0.09200
C817        C  0.72902517  0.34071554  0.37461242     0.29700
C818        C  0.72621682  0.35706339  0.35341927    -0.21100
C819        C  0.73800131  0.35127546  0.32986138    -0.09200
C820        C  0.75335885  0.32921469  0.32810241     0.29700
F821        F  0.76469273  0.32258621  0.30565540    -0.19700
H822        H  0.76707817  0.29542714  0.34701261     0.18100
H823        H  0.71406998  0.37376498  0.35516958     0.18100
F824        F  0.71633255  0.34611760  0.39665088    -0.19700
C825        C  0.75754124  0.30358948  0.68406647    -0.21100
C826        C  0.73892100  0.30842624  0.66527452    -0.09200
C827        C  0.72880536  0.33337963  0.66288202     0.29700
C828        C  0.73499080  0.35214461  0.68108349    -0.21100
C829        C  0.75117650  0.34604310  0.70168656    -0.09200
C830        C  0.76356406  0.32215588  0.70218374     0.29700
F831        F  0.78024271  0.31614484  0.72128154    -0.19700
H832        H  0.76601070  0.28472172  0.68606627     0.18100
H833        H  0.72555608  0.37063372  0.68024718     0.18100
F834        F  0.71167087  0.33909799  0.64412922    -0.19700
C835        C  0.62273614  0.26694854  0.68132668    -0.21100
C836        C  0.63539854  0.24418200  0.67490557    -0.09200
C837        C  0.63323531  0.22283210  0.69139362     0.29700
C838        C  0.62130135  0.22538048  0.71528447    -0.21100
C839        C  0.61100923  0.24903608  0.72282463    -0.09200
C840        C  0.61045593  0.26938572  0.70496580     0.29700
F841        F  0.60001227  0.29239540  0.71107306    -0.19700
H842        H  0.62414660  0.28359972  0.66889860     0.18100
H843        H  0.62159129  0.20931264  0.72850952     0.18100
F844        F  0.64527788  0.20046555  0.68586892    -0.19700
C845        C  0.70376884  0.26318978  0.54165945    -0.21100
C846        C  0.71912768  0.24790575  0.55764391    -0.09200
C847        C  0.74123256  0.23633465  0.54740119     0.29700
C848        C  0.74762950  0.24000307  0.52158926    -0.21100
C849        C  0.73254655  0.25576954  0.50581396    -0.09200
C850        C  0.71046153  0.26726827  0.51603319     0.29700
F851        F  0.69487303  0.28177803  0.50104312    -0.19700
H852        H  0.68670052  0.27234888  0.54912049     0.18100
H853        H  0.76457222  0.23071655  0.51395583     0.18100
F854        F  0.75653275  0.22133666  0.56221765    -0.19700
C855        C  0.30925903  0.32074378  0.25580772    -0.21100
C856        C  0.33242258  0.32402454  0.26907380    -0.09200
C857        C  0.33575388  0.34555790  0.28478056     0.29700
C858        C  0.31514445  0.36217558  0.28901962    -0.21100
C859        C  0.29123474  0.35764671  0.27731968    -0.09200
C860        C  0.28886649  0.33747311  0.25966567     0.29700
F861        F  0.26619098  0.33242009  0.24790927    -0.19700
H862        H  0.30649743  0.30433969  0.24333557     0.18100
H863        H  0.31741572  0.37763460  0.30267484     0.18100
F864        F  0.35799690  0.34916626  0.29781259    -0.19700
C865        C  0.65699818  0.31270050  0.24882697    -0.21100
C866        C  0.65273299  0.33629199  0.26096589    -0.09200
C867        C  0.63039107  0.33962582  0.27556654     0.29700
C868        C  0.61399374  0.31873049  0.27995273    -0.21100
C869        C  0.61959332  0.29444326  0.26963108    -0.09200
C870        C  0.64061740  0.29196635  0.25297502     0.29700
F871        F  0.64669012  0.26901787  0.24240070    -0.19700
H872        H  0.67401320  0.30984299  0.23718807     0.18100
H873        H  0.59781092  0.32116775  0.29270569     0.18100
F874        F  0.62566820  0.36223260  0.28747672    -0.19700
C875        C  0.63510653  0.24192523  0.38475588    -0.21100
C876        C  0.63884631  0.22850358  0.36181978    -0.09200
C877        C  0.66198191  0.21515484  0.35806078     0.29700
C878        C  0.68177712  0.21705340  0.37591016    -0.21100
C879        C  0.67907056  0.23259816  0.39758393    -0.09200
C880        C  0.65512966  0.24410192  0.40253867     0.29700
F881        F  0.65157000  0.25868097  0.42375704    -0.19700
H882        H  0.61729447  0.25201070  0.38817934     0.18100
H883        H  0.69994166  0.20790144  0.37170702     0.18100
F884        F  0.66593700  0.20113360  0.33653201    -0.19700
C885        C  0.49857544  0.22772458  0.26855858    -0.21100
C886        C  0.51081277  0.23985022  0.28923100    -0.09200
C887        C  0.49725865  0.25803816  0.30369260     0.29700
C888        C  0.47191355  0.26394838  0.29746685    -0.21100
C889        C  0.45959469  0.25157697  0.27703363    -0.09200
C890        C  0.47308502  0.23331945  0.26260689     0.29700
F891        F  0.46180091  0.22124423  0.24250785    -0.19700
H892        H  0.50877759  0.21382463  0.25699169     0.18100
H893        H  0.46174751  0.27794844  0.30892638     0.18100
F894        F  0.50869696  0.27066120  0.32334511    -0.19700
C895        C  0.33789070  0.34192272  0.77230410    -0.21100
C896        C  0.31842242  0.34055940  0.79075876    -0.09200
C897        C  0.31709000  0.31910420  0.80711605     0.29700
C898        C  0.33359528  0.29841050  0.80356226    -0.21100
C899        C  0.35156410  0.29864904  0.78354678    -0.09200
C900        C  0.35431582  0.32105562  0.76855240     0.29700
F901        F  0.37188079  0.32232316  0.74939494    -0.19700
H902        H  0.33917476  0.35833171  0.75953529     0.18100
H903        H  0.33130175  0.28158320  0.81562159     0.18100
F904        F  0.29899348  0.31765247  0.82579304    -0.19700
C905        C  0.33281914  0.63878282  0.77290511    -0.21100
C906        C  0.33102145  0.65807357  0.79141556    -0.09200
C907        C  0.30926877  0.65918077  0.80727547     0.29700
C908        C  0.28878752  0.64243915  0.80333326    -0.21100
C909        C  0.28949745  0.62457563  0.78331168    -0.09200
C910        C  0.31210821  0.62223722  0.76863950     0.29700
F911        F  0.31360468  0.60521434  0.74906303    -0.19700
H912        H  0.34944485  0.63775404  0.76047860     0.18100
H913        H  0.27168147  0.64459875  0.81495631     0.18100
F914        F  0.30733576  0.67728379  0.82583163    -0.19700
C915        C  0.20742785  0.67158047  0.70352119    -0.21100
C916        C  0.22315747  0.65014195  0.69973782    -0.09200
C917        C  0.24119459  0.65040881  0.67980524     0.29700
C918        C  0.24439874  0.67259076  0.66491026    -0.21100
C919        C  0.22969140  0.69468362  0.66977736    -0.09200
C920        C  0.21050225  0.69363124  0.68867641     0.29700
F921        F  0.19578164  0.71437523  0.69400312    -0.19700
H922        H  0.19335722  0.67163340  0.71886740     0.18100
H923        H  0.25934808  0.67293167  0.65049509     0.18100
F924        F  0.25718775  0.63022536  0.67625420    -0.19700
C925        C  0.24819260  0.50489017  0.75126133    -0.21100
C926        C  0.22959088  0.51754217  0.76597357    -0.09200
C927        C  0.21719427  0.50410911  0.78588074     0.29700
C928        C  0.22315897  0.47840386  0.79066805    -0.21100
C929        C  0.24217774  0.46596683  0.77634950    -0.09200
C930        C  0.25474543  0.47942084  0.75661661     0.29700
F931        F  0.27290094  0.46776943  0.74213204    -0.19700
H932        H  0.25818660  0.51496846  0.73603107     0.18100
H933        H  0.21317083  0.46827687  0.80588413     0.18100
F934        F  0.19921423  0.51575007  0.80059829    -0.19700
C935        C  0.24635138  0.31030296  0.40290633    -0.21100
C936        C  0.23426081  0.28692160  0.39685336    -0.09200
C937        C  0.21727272  0.28601688  0.37595002     0.29700
C938        C  0.21413100  0.30753286  0.36030522    -0.21100
C939        C  0.22737693  0.33041281  0.36548272    -0.09200
C940        C  0.24277826  0.33201306  0.38745952     0.29700
F941        F  0.25594990  0.35381968  0.39281752    -0.19700
H942        H  0.25953552  0.31145563  0.41889944     0.18100
H943        H  0.20197770  0.30604185  0.34349564     0.18100
F944        F  0.20513164  0.26390945  0.36947205    -0.19700
C945        C  0.31572513  0.20952748  0.35107117    -0.21100
C946        C  0.32097288  0.22079176  0.37492139    -0.09200
C947        C  0.34337545  0.23539227  0.37798192     0.29700
C948        C  0.35900652  0.24047791  0.35672759    -0.21100
C949        C  0.35256610  0.23083504  0.33236933    -0.09200
C950        C  0.33133001  0.21441365  0.32995019     0.29700
F951        F  0.32418344  0.20502977  0.30676194    -0.19700
H952        H  0.29854786  0.19804910  0.34840103     0.18100
H953        H  0.37531584  0.25316519  0.35901162     0.18100
F954        F  0.34884039  0.24665459  0.40076834    -0.19700
C955        C  0.31630857  0.20987816  0.70223564    -0.21100
C956        C  0.33811253  0.22558137  0.70017779    -0.09200
C957        C  0.34025004  0.24257570  0.67935681     0.29700
C958        C  0.31981409  0.24528762  0.66214939    -0.21100
C959        C  0.29718043  0.23088961  0.66534051    -0.09200
C960        C  0.29606274  0.21231801  0.68492783     0.29700
F961        F  0.27462336  0.19799162  0.68873501    -0.19700
H962        H  0.31437088  0.19653820  0.71812710     0.18100
H963        H  0.32112131  0.25972311  0.64721785     0.18100
F964        F  0.36096729  0.25819758  0.67700185    -0.19700
C965        C  0.21560130  0.33250698  0.72400539    -0.21100
C966        C  0.23217114  0.35350588  0.72104505    -0.09200
C967        C  0.24440421  0.35744820  0.69723895     0.29700
C968        C  0.24138800  0.33956363  0.67747676    -0.21100
C969        C  0.22656251  0.31744919  0.68140966    -0.09200
C970        C  0.21294418  0.31451448  0.70451562     0.29700
F971        F  0.19787102  0.29364764  0.70871457    -0.19700
H972        H  0.20589359  0.32906161  0.74207713     0.18100
H973        H  0.25195805  0.34215524  0.65974551     0.18100
F974        F  0.26022239  0.37781589  0.69347498    -0.19700
C975        C  0.25351097  0.25878113  0.54089174    -0.21100
C976        C  0.23748694  0.24258952  0.55530668    -0.09200
C977        C  0.22707559  0.22058127  0.54366948     0.29700
C978        C  0.23297532  0.21480795  0.51818424    -0.21100
C979        C  0.24975959  0.23049238  0.50410417    -0.09200
C980        C  0.25980424  0.25272121  0.51557134     0.29700
F981        F  0.27512467  0.26895937  0.50209843    -0.19700
H982        H  0.26169346  0.27585856  0.54943968     0.18100
H983        H  0.22465181  0.19785330  0.50950520     0.18100
F984        F  0.21108726  0.20473502  0.55683543    -0.19700
C985        C  0.75843571  0.64403724  0.90627545    -0.21100
C986        C  0.73702583  0.65840350  0.91407418    -0.09200
C987        C  0.71239709  0.65000303  0.90692204     0.29700
C988        C  0.70958605  0.62958773  0.88981108    -0.21100
C989        C  0.73125418  0.61780084  0.87907784    -0.09200
C990        C  0.75563209  0.62406000  0.88862017     0.29700
F991        F  0.77686308  0.61244390  0.87914555    -0.19700
H992        H  0.77761181  0.64996132  0.91166263     0.18100
H993        H  0.69055906  0.62503769  0.88274316     0.18100
F994        F  0.69119961  0.66301767  0.91446672    -0.19700
C995        C  0.63939949  0.77495712  0.17613295    -0.21100
C996        C  0.64875816  0.75434670  0.16160122    -0.09200
C997        C  0.63754766  0.73002893  0.16468675     0.29700
C998        C  0.61915212  0.72594983  0.18378732    -0.21100
C999        C  0.61233031  0.74583288  0.20058340    -0.09200
C1000       C  0.62164061  0.77072156  0.19579869     0.29700
F1001       F  0.61532740  0.79047313  0.21145673    -0.19700
H1002       H  0.64788990  0.79387997  0.17418920     0.18100
H1003       H  0.61226087  0.70658659  0.18708168     0.18100
F1004       F  0.64592664  0.70978407  0.15073590    -0.19700
C1005       C  0.71947447  0.73707557  0.02085645    -0.21100
C1006       C  0.74091812  0.74779663  0.00854331    -0.09200
C1007       C  0.75702601  0.76449809  0.02234042     0.29700
C1008       C  0.75175175  0.77006217  0.04807893    -0.21100
C1009       C  0.73076273  0.75860010  0.06050109    -0.09200
C1010       C  0.71457718  0.74214980  0.04665395     0.29700
F1011       F  0.69387981  0.73114305  0.05805068    -0.19700
H1012       H  0.70663941  0.72436553  0.01055588     0.18100
H1013       H  0.76451571  0.78269955  0.05853896     0.18100
F1014       F  0.77757875  0.77570798  0.01090102    -0.19700
C1015       C  0.84897983  0.65013378  0.30336325    -0.21100
C1016       C  0.85581421  0.65895267  0.27885947    -0.09200
C1017       C  0.84627382  0.64597363  0.25718925     0.29700
C1018       C  0.82813272  0.62640094  0.26009458    -0.21100
C1019       C  0.81956492  0.61912776  0.28455316    -0.09200
C1020       C  0.83127110  0.63012534  0.30627401     0.29700
F1021       F  0.82348302  0.62369683  0.33029292    -0.19700
H1022       H  0.85605911  0.65986867  0.32028175     0.18100
H1023       H  0.81931861  0.61829145  0.24311773     0.18100
F1024       F  0.85207937  0.65413969  0.23312787    -0.19700
C1025       C  0.80538901  0.71712415  0.20963698    -0.21100
C1026       C  0.82894571  0.72930723  0.20476971    -0.09200
C1027       C  0.83244502  0.74235356  0.18143146     0.29700
C1028       C  0.81178270  0.74524597  0.16451017    -0.21100
C1029       C  0.78755947  0.73487540  0.17047921    -0.09200
C1030       C  0.78488566  0.71971407  0.19265973     0.29700
F1031       F  0.76191001  0.70929964  0.19919303    -0.19700
H1032       H  0.80240631  0.70657572  0.22736385     0.18100
H1033       H  0.81433220  0.75691926  0.14746696     0.18100
F1034       F  0.85504932  0.75408805  0.17595971    -0.19700
C1035       C  0.11894408  0.72758115  0.37460840    -0.21100
C1036       C  0.11419139  0.75127306  0.36280617    -0.09200
C1037       C  0.12608170  0.77347122  0.37257787     0.29700
C1038       C  0.14405152  0.77152215  0.39238190    -0.21100
C1039       C  0.15023439  0.74755269  0.40293659    -0.09200
C1040       C  0.13664231  0.72567248  0.39466382     0.29700
F1041       F  0.14249456  0.70199997  0.40384213    -0.19700
H1042       H  0.11020554  0.71025036  0.36717036     0.18100
H1043       H  0.15449653  0.78853398  0.39818568     0.18100
F1044       F  0.12266832  0.79661213  0.36106567    -0.19700
C1045       C  0.99889870  0.76026428  0.26164226    -0.21100
C1046       C  0.01144408  0.74877910  0.28250935    -0.09200
C1047       C  0.99748170  0.73246435  0.29893409     0.29700
C1048       C  0.97131818  0.72817341  0.29465320    -0.21100
C1049       C  0.95880152  0.73952642  0.27362217    -0.09200
C1050       C  0.97292448  0.75548465  0.25700242     0.29700
F1051       F  0.96153219  0.76698533  0.23659822    -0.19700
H1052       H  0.00937107  0.77265357  0.24858606     0.18100
H1053       H  0.96081603  0.71586635  0.30779655     0.18100
F1054       F  0.00896195  0.72111010  0.31939267    -0.19700
C1055       C  0.72328545  0.16598003  0.72317282    -0.21100
C1056       C  0.73195000  0.14230987  0.71392217    -0.09200
C1057       C  0.73466202  0.13891824  0.68725968     0.29700
C1058       C  0.72953788  0.15931515  0.67040214    -0.21100
C1059       C  0.72185360  0.18324693  0.67996554    -0.09200
C1060       C  0.71827158  0.18619748  0.70650065     0.29700
F1061       F  0.70954497  0.20858129  0.71643343    -0.19700
H1062       H  0.72082915  0.16912798  0.74356755     0.18100
H1063       H  0.73203169  0.15657211  0.64997907     0.18100
F1064       F  0.74265641  0.11619285  0.67752776    -0.19700
C1065       C  0.61570457  0.83002973  0.79898382    -0.21100
C1066       C  0.61020138  0.82103351  0.77427328    -0.09200
C1067       C  0.62014561  0.83440201  0.75294763     0.29700
C1068       C  0.63762490  0.85448050  0.75653206    -0.21100
C1069       C  0.64504405  0.86182397  0.78132096    -0.09200
C1070       C  0.63271870  0.85046272  0.80255653     0.29700
F1071       F  0.63945317  0.85684471  0.82686572    -0.19700
H1072       H  0.60826186  0.82002361  0.81566606     0.18100
H1073       H  0.64692837  0.86289447  0.73991116     0.18100
F1074       F  0.61545603  0.82618090  0.72871659    -0.19700
C1075       C  0.72982813  0.84176333  0.88025735    -0.21100
C1076       C  0.71605757  0.83691895  0.85769232    -0.09200
C1077       C  0.70447789  0.81273751  0.85434283     0.29700
C1078       C  0.70788922  0.79339929  0.87261378    -0.21100
C1079       C  0.72334524  0.79756474  0.89423787    -0.09200
C1080       C  0.73370966  0.82221030  0.89831634     0.29700
F1081       F  0.74859121  0.82710779  0.91909298    -0.19700
H1082       H  0.73889553  0.86026404  0.88319822     0.18100
H1083       H  0.69971207  0.77463054  0.86898167     0.18100
F1084       F  0.69059009  0.80746080  0.83295787    -0.19700
C1085       C  0.75214279  0.97505046  0.79390687    -0.21100
C1086       C  0.72878026  0.96508708  0.78503397    -0.09200
C1087       C  0.71310415  0.98026951  0.76921454     0.29700
C1088       C  0.72046976  0.00531734  0.76297098    -0.21100
C1089       C  0.74397175  0.01520512  0.77162577    -0.09200
C1090       C  0.75992801  0.99976516  0.78695713     0.29700
F1091       F  0.78262130  0.00884371  0.79595809    -0.19700
H1092       H  0.76467233  0.96342861  0.80573985     0.18100
H1093       H  0.70779208  0.01702258  0.75137209     0.18100
F1094       F  0.69046231  0.97106956  0.76025282    -0.19700
C1095       C  0.65070010  0.25726867  0.89874174    -0.21100
C1096       C  0.65762150  0.23197816  0.90473674    -0.09200
C1097       C  0.64314846  0.21164557  0.89434849     0.29700
C1098       C  0.62422182  0.21657976  0.87593003    -0.21100
C1099       C  0.61877108  0.24181171  0.86839945    -0.09200
C1100       C  0.63116976  0.26222267  0.88101381     0.29700
F1101       F  0.62668556  0.28689409  0.87392543    -0.19700
H1102       H  0.66160891  0.27319107  0.90644601     0.18100
H1103       H  0.61497267  0.20062241  0.86636025     0.18100
F1104       F  0.64923326  0.18690331  0.89970820    -0.19700
C1105       C  0.75035288  0.13183440  0.88157548    -0.21100
C1106       C  0.72952788  0.14875671  0.88179298    -0.09200
C1107       C  0.71156710  0.14798022  0.86172233     0.29700
C1108       C  0.71577314  0.13234036  0.84053698    -0.21100
C1109       C  0.73812430  0.11752939  0.83886714    -0.09200
C1110       C  0.75479175  0.11636343  0.86014313     0.29700
F1111       F  0.77634731  0.10183953  0.85948305    -0.19700
H1112       H  0.76439049  0.13225383  0.89689934     0.18100
H1113       H  0.70244163  0.13330453  0.82461507     0.18100
F1114       F  0.69085173  0.16371943  0.86179811    -0.19700
C1115       C  0.71496530  0.33005527  0.16057600    -0.21100
C1116       C  0.74007561  0.32264280  0.15460017    -0.09200
C1117       C  0.76072997  0.33693942  0.16462491     0.29700
C1118       C  0.75625610  0.35593317  0.18297376    -0.21100
C1119       C  0.73118810  0.36153677  0.19087364    -0.09200
C1120       C  0.71047540  0.34959405  0.17829698     0.29700
F1121       F  0.68593370  0.35443469  0.18542984    -0.19700
H1122       H  0.69880231  0.31936428  0.15305975     0.18100
H1123       H  0.77246870  0.36491918  0.19237424     0.18100
F1124       F  0.78534450  0.33055347  0.15912732    -0.19700
C1125       C  0.76159338  0.24971826  0.03953445    -0.21100
C1126       C  0.74852396  0.23531420  0.05814290    -0.09200
C1127       C  0.73162597  0.21576669  0.05028795     0.29700
C1128       C  0.72813702  0.21062731  0.02422156    -0.21100
C1129       C  0.74076066  0.22540184  0.00558103    -0.09200
C1130       C  0.75747082  0.24513573  0.01344606     0.29700
F1131       F  0.77005981  0.25981293  0.99594622    -0.19700
H1132       H  0.77460278  0.26491850  0.04521129     0.18100
H1133       H  0.71515736  0.19538435  0.01858685     0.18100
F1134       F  0.71879658  0.20134079  0.06781649    -0.19700
C1135       C  0.12522823  0.25723654  0.68682747    -0.21100
C1136       C  0.11951256  0.23274296  0.69640625    -0.09200
C1137       C  0.13162812  0.21121578  0.68565247     0.29700
C1138       C  0.15096728  0.21448807  0.66743566    -0.21100
C1139       C  0.15799886  0.23912421  0.65919681    -0.09200
C1140       C  0.14412843  0.26045773  0.66811105     0.29700
F1141       F  0.15078058  0.28464287  0.66099878    -0.19700
H1142       H  0.11631017  0.27404964  0.69510959     0.18100
H1143       H  0.16160390  0.19786163  0.66100704     0.18100
F1144       F  0.12699921  0.18727173  0.69489848    -0.19700
C1145       C  0.85388434  0.32555324  0.75878206    -0.21100
C1146       C  0.86146175  0.31691955  0.78314107    -0.09200
C1147       C  0.85308521  0.33043875  0.80493572     0.29700
C1148       C  0.83519249  0.35025145  0.80241613    -0.21100
C1149       C  0.82595949  0.35746071  0.77818057    -0.09200
C1150       C  0.83658734  0.34591244  0.75622233     0.29700
F1151       F  0.82826351  0.35236203  0.73239205    -0.19700
H1152       H  0.86015098  0.31550558  0.74173074     0.18100
H1153       H  0.82730579  0.35886557  0.81957718     0.18100
F1154       F  0.86002542  0.32282424  0.82886740    -0.19700
C1155       C  0.84478368  0.17211691  0.74764477    -0.21100
C1156       C  0.86053939  0.17340512  0.76943408    -0.09200
C1157       C  0.86277213  0.15157558  0.78530769     0.29700
C1158       C  0.84711153  0.13024936  0.78117053    -0.21100
C1159       C  0.82935711  0.13011709  0.76099902    -0.09200
C1160       C  0.82933673  0.15059803  0.74333217     0.29700
F1161       F  0.81224752  0.15126000  0.72369336    -0.19700
H1162       H  0.84292784  0.18853463  0.73499229     0.18100
H1163       H  0.84750084  0.11460264  0.79492309     0.18100
F1164       F  0.87842607  0.15156281  0.80611374    -0.19700
C1165       C  0.81600987  0.25802442  0.85687015    -0.21100
C1166       C  0.83770780  0.24226253  0.85831841    -0.09200
C1167       C  0.84007289  0.22483162  0.87874164     0.29700
C1168       C  0.81968352  0.22152248  0.89594823    -0.21100
C1169       C  0.79704690  0.23598136  0.89327632    -0.09200
C1170       C  0.79600177  0.25525932  0.87437738     0.29700
F1171       F  0.77498021  0.27032445  0.87165268    -0.19700
H1172       H  0.81412073  0.27193487  0.84146356     0.18100
H1173       H  0.82109123  0.20676082  0.91053705     0.18100
F1174       F  0.86105164  0.20959223  0.88079443    -0.19700
C1175       C  0.97611243  0.24975329  0.76518116    -0.21100
C1176       C  0.96358452  0.23590945  0.78459938    -0.09200
C1177       C  0.97721895  0.21743802  0.79873611     0.29700
C1178       C  0.00314315  0.21325650  0.79372637    -0.21100
C1179       C  0.01587766  0.22767119  0.77487005    -0.09200
C1180       C  0.00217778  0.24593051  0.76051083     0.29700
F1181       F  0.01388268  0.25982116  0.74179932    -0.19700
H1182       H  0.96576754  0.26381242  0.75386334     0.18100
H1183       H  0.01341376  0.19909838  0.80497547     0.18100
F1184       F  0.96534810  0.20296406  0.81689200    -0.19700
C1185       C  0.32435752  0.27267980  0.16673796    -0.21100
C1186       C  0.31839919  0.24818249  0.15742306    -0.09200
C1187       C  0.33419541  0.22734323  0.16427986     0.29700
C1188       C  0.35341860  0.23051075  0.18266868    -0.21100
C1189       C  0.35762488  0.25452253  0.19387521    -0.09200
C1190       C  0.34402892  0.27594997  0.18464608     0.29700
F1191       F  0.34736398  0.29942435  0.19535576    -0.19700
H1192       H  0.31246188  0.28896499  0.16173198     0.18100
H1193       H  0.36365675  0.21380521  0.18960829     0.18100
F1194       F  0.32913042  0.20331359  0.15568606    -0.19700
C1195       C  0.25972505  0.35780779  0.87452863    -0.21100
C1196       C  0.23865047  0.36693428  0.86039955    -0.09200
C1197       C  0.21374297  0.36045722  0.86840210     0.29700
C1198       C  0.21017012  0.34353347  0.88893828    -0.21100
C1199       C  0.23133393  0.33212965  0.90111430    -0.09200
C1200       C  0.25616017  0.34019101  0.89450144     0.29700
F1201       F  0.27696134  0.32965884  0.90607296    -0.19700
H1202       H  0.27912267  0.36240776  0.86857474     0.18100
H1203       H  0.19084730  0.33734943  0.89354827     0.18100
F1204       F  0.19295331  0.36896003  0.85523389    -0.19700
C1205       C  0.13348817  0.24356722  0.87997490    -0.21100
C1206       C  0.15363200  0.26117762  0.87748494    -0.09200
C1207       C  0.15625820  0.27529183  0.85458116     0.29700
C1208       C  0.14018634  0.27030673  0.83383014    -0.21100
C1209       C  0.12154863  0.25095853  0.83544982    -0.09200
C1210       C  0.11763789  0.23825306  0.85904179     0.29700
F1211       F  0.09975167  0.21944981  0.86141785    -0.19700
H1212       H  0.13126199  0.23248511  0.89745461     0.18100
H1213       H  0.14350675  0.28043395  0.81593305     0.18100
F1214       F  0.17524917  0.29294435  0.85177826    -0.19700
C1215       C  0.24702636  0.23905304  0.01389702    -0.21100
C1216       C  0.22575495  0.25373005  0.00626548    -0.09200
C1217       C  0.20922201  0.26362114  0.02501754     0.29700
C1218       C  0.21404051  0.25889410  0.05097669    -0.21100
C1219       C  0.23493733  0.24368532  0.05849910    -0.09200
C1220       C  0.25143711  0.23376814  0.03977787     0.29700
F1221       F  0.27206883  0.21941940  0.04654268    -0.19700
H1222       H  0.26002254  0.23120244  0.99972988     0.18100
H1223       H  0.20111753  0.26669676  0.06523897     0.18100
F1224       F  0.18863297  0.27803252  0.01828962    -0.19700
C1225       C  0.64072271  0.12636043  0.31145871    -0.21100
C1226       C  0.64593345  0.11614658  0.28718165    -0.09200
C1227       C  0.62980501  0.12269572  0.26647405     0.29700
C1228       C  0.61182032  0.14240526  0.26920187    -0.21100
C1229       C  0.60874241  0.15466957  0.29288735    -0.09200
C1230       C  0.62199193  0.14519920  0.31443725     0.29700
F1231       F  0.61937444  0.15646021  0.33772606    -0.19700
H1232       H  0.65265961  0.12140043  0.32773708     0.18100
H1233       H  0.60155778  0.14923193  0.25245714     0.18100
F1234       F  0.63331679  0.11220427  0.24294981    -0.19700
C1235       C  0.74049139  0.14019765  0.18768419    -0.21100
C1236       C  0.72095830  0.14278998  0.20592568    -0.09200
C1237       C  0.70581671  0.16509198  0.20579275     0.29700
C1238       C  0.71118400  0.18505245  0.18868192    -0.21100
C1239       C  0.73198438  0.18336203  0.17170850    -0.09200
C1240       C  0.74621036  0.16038906  0.17085587     0.29700
F1241       F  0.76658018  0.15793027  0.15487039    -0.19700
H1242       H  0.75252318  0.12326416  0.18765832     0.18100
H1243       H  0.69984699  0.20242007  0.18968482     0.18100
F1244       F  0.68649654  0.16805825  0.22297434    -0.19700
C1245       C  0.75851806  0.84980885  0.38712693    -0.21100
C1246       C  0.73693978  0.86029478  0.37476872    -0.09200
C1247       C  0.71239543  0.85195297  0.38213096     0.29700
C1248       C  0.70969341  0.83221606  0.40016858    -0.21100
C1249       C  0.73137487  0.81985859  0.41040797    -0.09200
C1250       C  0.75584508  0.82938363  0.40440577     0.29700
F1251       F  0.77718186  0.81784053  0.41382140    -0.19700
H1252       H  0.77767941  0.85568491  0.38153047     0.18100
H1253       H  0.69061538  0.82497397  0.40424575     0.18100
F1254       F  0.69114185  0.86147041  0.37049059    -0.19700
C1255       C  0.71069502  0.81772303  0.21570836    -0.21100
C1256       C  0.72471552  0.82251716  0.19321352    -0.09200
C1257       C  0.74062248  0.84421405  0.19188330     0.29700
C1258       C  0.74372670  0.85978194  0.21349584    -0.21100
C1259       C  0.73083419  0.85404333  0.23654367    -0.09200
C1260       C  0.71357401  0.83331305  0.23715689     0.29700
F1261       F  0.70051429  0.82716309  0.25884296    -0.19700
H1262       H  0.69804124  0.80121571  0.21700401     0.18100
H1263       H  0.75708857  0.87568372  0.21252285     0.18100
F1264       F  0.75447186  0.84934610  0.17043611    -0.19700
C1265       C  0.81971628  0.82209182  0.31868651    -0.21100
C1266       C  0.81882861  0.84293174  0.30158066    -0.09200
C1267       C  0.83643604  0.84402340  0.28126353     0.29700
C1268       C  0.85247662  0.82301979  0.27647206    -0.21100
C1269       C  0.85158402  0.80101774  0.29224357    -0.09200
C1270       C  0.83616365  0.80147268  0.31434564     0.29700
F1271       F  0.83556561  0.78128109  0.33082344    -0.19700
H1272       H  0.80658504  0.82113636  0.33479674     0.18100
H1273       H  0.86452726  0.82338625  0.25955430     0.18100
F1274       F  0.83651845  0.86421812  0.26476446    -0.19700
C1275       C  0.75457986  0.98430500  0.30507961    -0.21100
C1276       C  0.73934656  0.96534148  0.29361658    -0.09200
C1277       C  0.71967959  0.97275822  0.27661033     0.29700
C1278       C  0.71560886  0.99868835  0.27106706    -0.21100
C1279       C  0.73057766  0.01761375  0.28285856    -0.09200
C1280       C  0.75008102  0.01025718  0.30001363     0.29700
F1281       F  0.76528585  0.02812209  0.31130219    -0.19700
H1282       H  0.76990571  0.97902627  0.31807957     0.18100
H1283       H  0.70051131  0.00401470  0.25781642     0.18100
F1284       F  0.70481821  0.95495740  0.26479097    -0.19700
C1285       C  0.83107191  0.26930440  0.39440690    -0.21100
C1286       C  0.81919311  0.24846098  0.40680358    -0.09200
C1287       C  0.82878268  0.22364887  0.40276204     0.29700
C1288       C  0.84794590  0.21954849  0.38449601    -0.21100
C1289       C  0.85733575  0.24002088  0.36960520    -0.09200
C1290       C  0.84980531  0.26515182  0.37569086     0.29700
F1291       F  0.85890435  0.28546374  0.36208750    -0.19700
H1292       H  0.82401989  0.28865339  0.39723729     0.18100
H1293       H  0.85350680  0.19999882  0.38023150     0.18100
F1294       F  0.81814160  0.20314673  0.41486091    -0.19700
C1295       C  0.85438188  0.22869562  0.20721089    -0.21100
C1296       C  0.85137784  0.24417434  0.22907607    -0.09200
C1297       C  0.83277405  0.26364428  0.22875827     0.29700
C1298       C  0.81652898  0.26638447  0.20767372    -0.21100
C1299       C  0.81846127  0.24987235  0.18653661    -0.09200
C1300       C  0.83806655  0.23148468  0.18606027     0.29700
F1301       F  0.84009060  0.21483864  0.16621376    -0.19700
H1302       H  0.86843762  0.21342657  0.20704270     0.18100
H1303       H  0.80154056  0.28074812  0.20840297     0.18100
F1304       F  0.82896366  0.27884399  0.24948920    -0.19700
C1305       C  0.80726737  0.16399910  0.31344328    -0.21100
C1306       C  0.82937555  0.16070876  0.29849396    -0.09200
C1307       C  0.83055256  0.14017437  0.28120218     0.29700
C1308       C  0.80915013  0.12426030  0.27784164    -0.21100
C1309       C  0.78643128  0.12851926  0.29176858    -0.09200
C1310       C  0.78601869  0.14804759  0.31028828     0.29700
F1311       F  0.76456353  0.15293181  0.32414537    -0.19700
H1312       H  0.80603898  0.17975943  0.32693326     0.18100
H1313       H  0.80994650  0.10935635  0.26344257     0.18100
F1314       F  0.85144651  0.13680631  0.26607961    -0.19700
C1315       C  0.12419605  0.33545632  0.26673282    -0.21100
C1316       C  0.11532906  0.32040454  0.28733995    -0.09200
C1317       C  0.12378628  0.32615279  0.31226729     0.29700
C1318       C  0.14227304  0.34523859  0.31613612    -0.21100
C1319       C  0.15306989  0.35843544  0.29519826    -0.09200
C1320       C  0.14321440  0.35404516  0.27051834     0.29700
F1321       F  0.15313986  0.36648563  0.24987071    -0.19700
H1322       H  0.11812146  0.33127867  0.24730794     0.18100
H1323       H  0.14973537  0.34810048  0.33531734     0.18100
F1324       F  0.11551466  0.31216946  0.33266526    -0.19700
C1325       C  0.13528875  0.23965975  0.18438263    -0.21100
C1326       C  0.13751442  0.25583918  0.20560662    -0.09200
C1327       C  0.15973520  0.27079896  0.20868661     0.29700
C1328       C  0.18027289  0.26808208  0.19179157    -0.21100
C1329       C  0.17908871  0.25012365  0.17184762    -0.09200
C1330       C  0.15601149  0.23658383  0.16767275     0.29700
F1331       F  0.15394859  0.21923968  0.14843509    -0.19700
H1332       H  0.11830021  0.22791228  0.18188363     0.18100
H1333       H  0.19768050  0.27891448  0.19528769     0.18100
F1334       F  0.16203752  0.28707892  0.22884499    -0.19700
C1335       C  0.99939620  0.21745316  0.26831595    -0.21100
C1336       C  0.01157139  0.23901868  0.27882161    -0.09200
C1337       C  0.99787409  0.25508710  0.29542523     0.29700
C1338       C  0.97214364  0.25003553  0.30082615    -0.21100
C1339       C  0.95986980  0.22849118  0.29035801    -0.09200
C1340       C  0.97381858  0.21195204  0.27432666     0.29700
F1341       F  0.96254187  0.19097168  0.26384305    -0.19700
H1342       H  0.00984681  0.20462323  0.25579796     0.18100
H1343       H  0.96174118  0.26306719  0.31318052     0.18100
F1344       F  0.00921504  0.27604783  0.30588627    -0.19700
C1345       C  0.20453107  0.86031940  0.69330189    -0.21100
C1346       C  0.22599640  0.87152815  0.70520201    -0.09200
C1347       C  0.25046396  0.86689794  0.69504522     0.29700
C1348       C  0.25358629  0.84931403  0.67511511    -0.21100
C1349       C  0.23248431  0.83548749  0.66559860    -0.09200
C1350       C  0.20772007  0.84212061  0.67385691     0.29700
F1351       F  0.18683924  0.82959764  0.66462191    -0.19700
H1352       H  0.18544009  0.86360267  0.70083127     0.18100
H1353       H  0.27287416  0.84457920  0.66905393     0.18100
F1354       F  0.27154897  0.87772428  0.70580290    -0.19700
C1355       C  0.33644222  0.13509353  0.81831188    -0.21100
C1356       C  0.32467484  0.12174867  0.79807340    -0.09200
C1357       C  0.33388618  0.12545724  0.77299754     0.29700
C1358       C  0.35279138  0.14391032  0.76807486    -0.21100
C1359       C  0.36226065  0.15946715  0.78791714    -0.09200
C1360       C  0.35482951  0.15409476  0.81328635     0.29700
F1361       F  0.36387477  0.16848028  0.83296961    -0.19700
H1362       H  0.32963023  0.13262401  0.83780421     0.18100
H1363       H  0.35814197  0.14771297  0.74833654     0.18100
F1364       F  0.32324720  0.11266627  0.75300086    -0.19700
C1365       C  0.16267420  0.12295886  0.79284436    -0.21100
C1366       C  0.18659379  0.12730251  0.78110537    -0.09200
C1367       C  0.18911161  0.14748394  0.76333919     0.29700
C1368       C  0.16867986  0.16413149  0.75905971    -0.21100
C1369       C  0.14539714  0.16085637  0.77215003    -0.09200
C1370       C  0.14215170  0.13961957  0.78841965     0.29700
F1371       F  0.12005589  0.13629747  0.80178072    -0.19700
H1372       H  0.16031104  0.10760425  0.80666669     0.18100
H1373       H  0.17144648  0.18037259  0.74628282     0.18100
F1374       F  0.21184375  0.15244126  0.75163951    -0.19700
C1375       C  0.22792774  0.14703420  0.89093380    -0.21100
C1376       C  0.24692696  0.14820194  0.87194670    -0.09200
C1377       C  0.26215623  0.17030630  0.86962622     0.29700
C1378       C  0.25733662  0.19156919  0.88482645    -0.21100
C1379       C  0.23686929  0.19147912  0.90221065    -0.09200
C1380       C  0.22271915  0.16866676  0.90595419     0.29700
F1381       F  0.20310667  0.16766317  0.92304278    -0.19700
H1382       H  0.21596664  0.13009929  0.89286179     0.18100
H1383       H  0.26867482  0.20875465  0.88171144     0.18100
F1384       F  0.28087328  0.17184883  0.85158731    -0.19700
C1385       C  0.22085317  0.00649340  0.81759366    -0.21100
C1386       C  0.24103541  0.01867213  0.80448094    -0.09200
C1387       C  0.25473540  0.00498190  0.78582809     0.29700
C1388       C  0.24820370  0.97964640  0.78027627    -0.21100
C1389       C  0.22768248  0.96762346  0.79289050    -0.09200
C1390       C  0.21406244  0.98117288  0.81175145     0.29700
F1391       F  0.19476631  0.96972231  0.82501981    -0.19700
H1392       H  0.20998117  0.01677717  0.83197577     0.18100
H1393       H  0.25914771  0.96940671  0.76590866     0.18100
F1394       F  0.27467842  0.01600329  0.77318223    -0.19700
C1395       C  0.11990841  0.64538633  0.79790408    -0.21100
C1396       C  0.11151621  0.66054920  0.77717831    -0.09200
C1397       C  0.12069888  0.65513139  0.75245925     0.29700
C1398       C  0.13909496  0.63597300  0.74891909    -0.21100
C1399       C  0.14932037  0.62260471  0.77002274    -0.09200
C1400       C  0.13902321  0.62692192  0.79450104     0.29700
F1401       F  0.14859623  0.61454485  0.81534022    -0.19700
H1402       H  0.11340546  0.64942278  0.81721185     0.18100
H1403       H  0.14704082  0.63325117  0.72989481     0.18100
F1404       F  0.11326982  0.66950489  0.73202766    -0.19700
C1405       C  0.13738622  0.80013043  0.76177170    -0.21100
C1406       C  0.11805006  0.80014186  0.78041711    -0.09200
C1407       C  0.11460992  0.82211384  0.79572492     0.29700
C1408       C  0.13172609  0.84274822  0.79374336    -0.21100
C1409       C  0.15249042  0.84148412  0.77675823    -0.09200
C1410       C  0.15463638  0.82045653  0.76009660     0.29700
F1411       F  0.17418747  0.81897845  0.74297145    -0.19700
H1412       H  0.14030405  0.78358539  0.74960575     0.18100
H1413       H  0.12975393  0.85888250  0.80663095     0.18100
F1414       F  0.09565995  0.82309251  0.81352955    -0.19700
C1415       C  0.85143508  0.71671941  0.69243264    -0.21100
C1416       C  0.85801991  0.74229549  0.69756114    -0.09200
C1417       C  0.84820099  0.76182055  0.68162105     0.29700
C1418       C  0.82942200  0.75608822  0.66335330    -0.21100
C1419       C  0.82101544  0.73077804  0.66000257    -0.09200
C1420       C  0.83341381  0.71089446  0.67345016     0.29700
F1421       F  0.82580129  0.68614176  0.67062888    -0.19700
H1422       H  0.85877829  0.70138805  0.70442120     0.18100
H1423       H  0.82011771  0.77163802  0.65315628     0.18100
F1424       F  0.85434104  0.78677909  0.68573482    -0.19700
C1425       C  0.84846836  0.75475292  0.85986897    -0.21100
C1426       C  0.84327952  0.74270179  0.83630563    -0.09200
C1427       C  0.82279515  0.72520268  0.83483767     0.29700
C1428       C  0.80678845  0.72138968  0.85590361    -0.21100
C1429       C  0.81098675  0.73455991  0.87897140    -0.09200
C1430       C  0.83261883  0.75050349  0.88120365     0.29700
F1431       F  0.83744604  0.76326986  0.90332610    -0.19700
H1432       H  0.86427716  0.76815556  0.86152246     0.18100
H1433       H  0.79035661  0.70877440  0.85381900     0.18100
F1434       F  0.81712502  0.71299396  0.81258652    -0.19700
C1435       C  0.82972862  0.84753543  0.78092837    -0.21100
C1436       C  0.82799404  0.82649600  0.76434887    -0.09200
C1437       C  0.80568368  0.82327313  0.74945907     0.29700
C1438       C  0.78475147  0.83951676  0.75275258    -0.21100
C1439       C  0.78549847  0.85905820  0.77111329    -0.09200
C1440       C  0.80859307  0.86368063  0.78444894     0.29700
F1441       F  0.81029984  0.88277038  0.80200581    -0.19700
H1442       H  0.84672972  0.85040131  0.79250172     0.18100
H1443       H  0.76731631  0.83564881  0.74211854     0.18100
F1444       F  0.80350128  0.80349388  0.73272068    -0.19700
C1445       C  0.97485134  0.77106461  0.77150432    -0.21100
C1446       C  0.95609122  0.75464316  0.78173969    -0.09200
C1447       C  0.96386643  0.73327366  0.79642133     0.29700
C1448       C  0.98987864  0.72835526  0.80047054    -0.21100
C1449       C  0.00858409  0.74420772  0.78947076    -0.09200
C1450       C  0.00092525  0.76576324  0.77506232     0.29700
F1451       F  0.01863947  0.78194315  0.76483553    -0.19700
H1452       H  0.96933604  0.78770267  0.76029870     0.18100
H1453       H  0.99543298  0.71177545  0.81174284     0.18100
F1454       F  0.94633864  0.71715921  0.80703696    -0.19700
C1455       C  0.21714746  0.63718296  0.17996747    -0.21100
C1456       C  0.23878812  0.64871427  0.16871417    -0.09200
C1457       C  0.26332127  0.64134254  0.17699426     0.29700
C1458       C  0.26595571  0.62419273  0.19754915    -0.21100
C1459       C  0.24419389  0.61487187  0.21056523    -0.09200
C1460       C  0.21974323  0.62078119  0.20101473     0.29700
F1461       F  0.19832004  0.61228746  0.21316455    -0.19700
H1462       H  0.19802931  0.64284367  0.17413922     0.18100
H1463       H  0.28502811  0.62003620  0.20469948     0.18100
F1464       F  0.28461679  0.65193357  0.16634879    -0.19700
C1465       C  0.13467017  0.73324155  0.18041242    -0.21100
C1466       C  0.15509272  0.71634675  0.18473111    -0.09200
C1467       C  0.15562666  0.70181483  0.20751642     0.29700
C1468       C  0.13760361  0.70625196  0.22676633    -0.21100
C1469       C  0.11897696  0.72539818  0.22373754    -0.09200
C1470       C  0.11672217  0.73786387  0.19979264     0.29700
F1471       F  0.09839689  0.75587103  0.19572271    -0.19700
H1472       H  0.13373562  0.74435672  0.16283818     0.18100
H1473       H  0.13953099  0.69608215  0.24483162     0.18100
F1474       F  0.17445464  0.68436428  0.21180654    -0.19700
C1475       C  0.32319310  0.71242399  0.89501860    -0.21100
C1476       C  0.31541850  0.73695458  0.90271681    -0.09200
C1477       C  0.32878233  0.75851544  0.89323334     0.29700
C1478       C  0.34781814  0.75558370  0.87458033    -0.21100
C1479       C  0.35431582  0.73116048  0.86552732    -0.09200
C1480       C  0.34279858  0.70945746  0.87692306     0.29700
F1481       F  0.34848013  0.68548234  0.86862263    -0.19700
H1482       H  0.31310792  0.69557983  0.90195792     0.18100
H1483       H  0.35628995  0.77255444  0.86597222     0.18100
F1484       F  0.32158424  0.78260966  0.89983163    -0.19700
C1485       C  0.13222738  0.74152699  0.88317160    -0.21100
C1486       C  0.13518705  0.72627344  0.86127075    -0.09200
C1487       C  0.15775200  0.71183440  0.85832063     0.29700
C1488       C  0.17768633  0.71413179  0.87595147    -0.21100
C1489       C  0.17581283  0.73120779  0.89656852    -0.09200
C1490       C  0.15248444  0.74420754  0.90066204     0.29700
F1491       F  0.14968663  0.76047239  0.92072748    -0.19700
H1492       H  0.11494403  0.75269422  0.88583433     0.18100
H1493       H  0.19532893  0.70374767  0.87242579     0.18100
F1494       F  0.16107942  0.69635906  0.83769733    -0.19700
C1495       C  0.22633769  0.83753746  0.88783025    -0.21100
C1496       C  0.24481271  0.81828713  0.88527205    -0.09200
C1497       C  0.26135860  0.81869816  0.86397462     0.29700
C1498       C  0.25815334  0.83697478  0.84461403    -0.21100
C1499       C  0.23819289  0.85491192  0.84597535    -0.09200
C1500       C  0.22282206  0.85562499  0.86825218     0.29700
F1501       F  0.20318971  0.87253242  0.87035238    -0.19700
H1502       H  0.21333194  0.83740832  0.90406877     0.18100
H1503       H  0.27034131  0.83607009  0.82781654     0.18100
F1504       F  0.27988173  0.80063510  0.86131073    -0.19700
C1505       C  0.21733742  0.71987783  0.01581282    -0.21100
C1506       C  0.23548514  0.73825320  0.00790887    -0.09200
C1507       C  0.25008522  0.75110439  0.02648041     0.29700
C1508       C  0.24695055  0.74524719  0.05245167    -0.21100
C1509       C  0.22866338  0.72709689  0.06044425    -0.09200
C1510       C  0.21360342  0.71460063  0.04191766     0.29700
F1511       F  0.19570845  0.69699789  0.04897388    -0.19700
H1512       H  0.20577624  0.70987442  0.00174291     0.18100
H1513       H  0.25858262  0.75528832  0.06643190     0.18100
F1514       F  0.26783779  0.76885935  0.01949520    -0.19700
C1515       C  0.22424715  0.13870799  0.39349744    -0.21100
C1516       C  0.24888531  0.14841538  0.39810244    -0.09200
C1517       C  0.26962398  0.13904765  0.38358750     0.29700
C1518       C  0.26526716  0.12198896  0.36337813    -0.21100
C1519       C  0.24033209  0.11367718  0.35763526    -0.09200
C1520       C  0.21995490  0.12131962  0.37360469     0.29700
F1521       F  0.19543162  0.11442590  0.36819178    -0.19700
H1522       H  0.20798512  0.14599348  0.40415251     0.18100
H1523       H  0.28115974  0.11663474  0.35113290     0.18100
F1524       F  0.29361293  0.14866975  0.38686267    -0.19700
C1525       C  0.22453401  0.14623160  0.17750979    -0.21100
C1526       C  0.24627781  0.16203025  0.17764669    -0.09200
C1527       C  0.26509729  0.15844823  0.19660444     0.29700
C1528       C  0.26100966  0.14097474  0.21651586    -0.21100
C1529       C  0.23807920  0.12690228  0.21786111    -0.09200
C1530       C  0.22032596  0.12881412  0.19753174     0.29700
F1531       F  0.19808979  0.11524640  0.19782929    -0.19700
H1532       H  0.20983644  0.14879991  0.16305162     0.18100
H1533       H  0.27518502  0.13954127  0.23165104     0.18100
F1534       F  0.28686024  0.17279372  0.19655575    -0.19700
C1535       C  0.11759691  0.15907051  0.27306606    -0.21100
C1536       C  0.12051317  0.18058811  0.28904577    -0.09200
C1537       C  0.13957270  0.18023421  0.30811085     0.29700
C1538       C  0.15677462  0.15981058  0.30948404    -0.21100
C1539       C  0.15514123  0.13932376  0.29214414    -0.09200
C1540       C  0.13478452  0.13854247  0.27456128     0.29700
F1541       F  0.13300315  0.11930330  0.25718205    -0.19700
H1542       H  0.10307050  0.15888517  0.25822945     0.18100
H1543       H  0.17229526  0.16065872  0.32329587     0.18100
F1544       F  0.14301966  0.20051606  0.32400831    -0.19700
C1545       C  0.33210130  0.85950031  0.30374813    -0.21100
C1546       C  0.32554265  0.86567334  0.27838656    -0.09200
C1547       C  0.34009731  0.85521408  0.25821367     0.29700
C1548       C  0.35815702  0.83606641  0.26329393    -0.21100
C1549       C  0.36271081  0.82791597  0.28853220    -0.09200
C1550       C  0.35089170  0.84108421  0.30886610     0.29700
F1551       F  0.35499746  0.83387633  0.33356689    -0.19700
H1552       H  0.32121891  0.86738125  0.31957493     0.18100
H1553       H  0.36716143  0.82626269  0.24736964     0.18100
F1554       F  0.33465266  0.86102240  0.23340454    -0.19700
C1555       C  0.16265199  0.85591223  0.27310323    -0.21100
C1556       C  0.18690964  0.84876276  0.28252989    -0.09200
C1557       C  0.18943332  0.82546220  0.29586401     0.29700
C1558       C  0.16856278  0.80885008  0.29795059    -0.21100
C1559       C  0.14465947  0.81526898  0.28728298    -0.09200
C1560       C  0.14152799  0.83944617  0.27576484     0.29700
F1561       F  0.11856264  0.84653019  0.26579798    -0.19700
H1562       H  0.16026176  0.87385111  0.26287389     0.18100
H1563       H  0.17134434  0.79047343  0.30735056     0.18100
F1564       F  0.21247144  0.81783068  0.30528895    -0.19700
C1565       C  0.23248320  0.83153900  0.18102395    -0.21100
C1566       C  0.25224406  0.83128219  0.19924912    -0.09200
C1567       C  0.26840533  0.80971921  0.20081170     0.29700
C1568       C  0.26377482  0.78826397  0.18551671    -0.21100
C1569       C  0.24276336  0.78768298  0.16870792    -0.09200
C1570       C  0.22760203  0.80989112  0.16596755     0.29700
F1571       F  0.20724892  0.81029849  0.14975211    -0.19700
H1572       H  0.21975170  0.84788334  0.17958372     0.18100
H1573       H  0.27588044  0.77152526  0.18788325     0.18100
F1574       F  0.28802297  0.80889948  0.21793093    -0.19700
C1575       C  0.25276553  0.98053278  0.25088370    -0.21100
C1576       C  0.23900914  0.96199997  0.26474526    -0.09200
C1577       C  0.21979659  0.96991248  0.28190881     0.29700
C1578       C  0.21486715  0.99597615  0.28550987    -0.21100
C1579       C  0.22933278  0.01458369  0.27249177    -0.09200
C1580       C  0.24821991  0.00665838  0.25489807     0.29700
F1581       F  0.26217021  0.02412147  0.24145911    -0.19700
H1582       H  0.26751409  0.97478510  0.23744596     0.18100
H1583       H  0.20010503  0.00162802  0.29897121     0.18100
F1584       F  0.20555913  0.95241259  0.29499500    -0.19700
loop_ 
_geom_bond_atom_site_label_1 
_geom_bond_atom_site_label_2 
_geom_bond_distance 
_geom_bond_site_symmetry_2 
_ccdc_geom_bond_type 
In1           O3   2.231       .  S
In1           O4   2.238       .  S
In1          O12   2.221       .  S
In1           O6   2.256       .  S
In1           O8   2.267       .  S
In1           O9   2.238       .  S
In1          O10   2.216       .  S
In1          O13   2.234       .  S
C2            O8   1.268       .  A
C2           O10   1.257       .  A
C2         C1566   1.476       .  S
O3           C11   1.263       .  A
O4           C11   1.266       .  A
C5           O12   1.260       .  A
C5            O6   1.265       .  A
C5         C1576   1.474       .  S
C7            O9   1.265       .  A
C7           O13   1.261       .  A
C7         C1556   1.476       .  S
C11        C1546   1.476       .  S
In14         O16   2.234       .  S
In14         O17   2.247       .  S
In14         O25   2.232       .  S
In14         O19   2.255       .  S
In14         O21   2.265       .  S
In14         O22   2.238       .  S
In14         O23   2.211       .  S
In14         O26   2.230       .  S
C15          O21   1.268       .  A
C15          O23   1.259       .  A
C15        C1539   1.472       .  S
O16          C24   1.261       .  A
O17          C24   1.265       .  A
C18          O25   1.259       .  A
C18          O19   1.264       .  A
C18        C1579   1.477       .  S
C20          O22   1.265       .  A
C20          O26   1.261       .  A
C20        C1529   1.477       .  S
C24        C1519   1.477       .  S
In27         O29   2.241       .  S
In27         O30   2.254       .  S
In27         O38   2.241       .  S
In27         O32   2.253       .  S
In27         O34   2.268       .  S
In27         O35   2.233       .  S
In27         O36   2.207       .  S
In27         O39   2.245       .  S
C28          O34   1.268       .  A
C28          O36   1.258       .  A
C28        C1496   1.471       .  S
O29          C37   1.261       .  A
O30          C37   1.265       .  A
C31          O38   1.260       .  A
C31          O32   1.264       .  A
C31        C1506   1.475   1_556  S
C33          O35   1.264       .  A
C33          O39   1.262       .  A
C33        C1489   1.478       .  S
C37        C1476   1.480       .  S
In40         O42   2.231       .  S
In40         O43   2.250       .  S
In40         O51   2.233       .  S
In40         O45   2.259       .  S
In40         O47   2.263       .  S
In40         O48   2.249       .  S
In40         O49   2.218       .  S
In40         O52   2.241       .  S
C41          O47   1.266       .  A
C41          O49   1.259       .  A
C41        C1466   1.474       .  S
O42          C50   1.261       .  A
O43          C50   1.264       .  A
C44          O51   1.259       .  A
C44          O45   1.262       .  A
C44        C1509   1.476       .  S
C46          O48   1.264       .  A
C46          O52   1.261       .  A
C46        C1569   1.481       .  S
C50        C1456   1.474       .  S
In53         O55   2.240       .  S
In53         O56   2.239       .  S
In53         O64   2.220       .  S
In53         O58   2.264       .  S
In53         O60   2.272       .  S
In53         O61   2.234       .  S
In53         O62   2.203       .  S
In53         O65   2.247       .  S
C54          O60   1.269       .  A
C54          O62   1.257       .  A
C54        C1436   1.475       .  S
O55          C63   1.263       .  A
O56          C63   1.264       .  A
C57          O64   1.259       .  A
C57          O58   1.266       .  A
C57        C1446   1.479       .  S
C59          O61   1.263       .  A
C59          O65   1.262       .  A
C59        C1426   1.479       .  S
C63        C1416   1.477       .  S
In66         O68   2.235       .  S
In66         O69   2.246       .  S
In66         O77   2.231       .  S
In66         O71   2.251       .  S
In66         O73   2.270       .  S
In66         O74   2.230       .  S
In66         O75   2.207       .  S
In66         O78   2.228       .  S
C67          O73   1.268       .  A
C67          O75   1.258       .  A
C67        C1486   1.474       .  S
O68          C76   1.262       .  A
O69          C76   1.265       .  A
C70          O77   1.259       .  A
C70          O71   1.265       .  A
C70        C1449   1.473       .  S
C72          O74   1.266       .  A
C72          O78   1.262       .  A
C72        C1406   1.474       .  S
C76        C1396   1.478       .  S
In79         O81   2.253       .  S
In79         O82   2.236       .  S
In79         O90   2.223       .  S
In79         O84   2.253       .  S
In79         O86   2.267       .  S
In79         O87   2.242       .  S
In79         O88   2.191       .  S
In79         O91   2.233       .  S
C80          O86   1.267       .  A
C80          O88   1.258       .  A
C80        C1376   1.466       .  S
O81          C89   1.265       .  A
O82          C89   1.264       .  A
C83          O90   1.260       .  A
C83          O84   1.263       .  A
C83        C1386   1.473       .  S
C85          O87   1.262       .  A
C85          O91   1.258       .  A
C85        C1366   1.474       .  S
C89        C1356   1.480       .  S
In92         O94   2.243       .  S
In92         O95   2.236       .  S
In92        O103   2.223       .  S
In92         O97   2.249       .  S
In92         O99   2.260       .  S
In92        O100   2.253       .  S
In92        O101   2.194       .  S
In92        O104   2.230       .  S
C93          O99   1.269       .  A
C93         O101   1.260       .  A
C93        C1409   1.468       .  S
O94         C102   1.264       .  A
O95         C102   1.267       .  A
C96         O103   1.261       .  A
C96          O97   1.265       .  A
C96        C1389   1.473       .  S
C98         O100   1.265       .  A
C98         O104   1.259       .  A
C98        C1499   1.480       .  S
C102       C1346   1.477       .  S
In105       O107   2.240       .  S
In105       O108   2.234       .  S
In105       O116   2.224       .  S
In105       O110   2.250       .  S
In105       O112   2.261       .  S
In105       O113   2.246       .  S
In105       O114   2.197       .  S
In105       O117   2.233       .  S
C106        O112   1.268       .  A
C106        O114   1.259       .  A
C106       C1326   1.465       .  S
O107        C115   1.265       .  A
O108        C115   1.266       .  A
C109        O116   1.259       .  A
C109        O110   1.263       .  A
C109       C1336   1.470       .  S
C111        O113   1.263       .  A
C111        O117   1.259       .  A
C111       C1536   1.477       .  S
C115       C1316   1.478       .  S
In118       O120   2.237       .  S
In118       O121   2.232       .  S
In118       O129   2.230       .  S
In118       O123   2.247       .  S
In118       O125   2.268       .  S
In118       O126   2.245       .  S
In118       O127   2.205       .  S
In118       O130   2.236       .  S
C119        O125   1.268       .  A
C119        O127   1.258       .  A
C119       C1306   1.472       .  S
O120        C128   1.265       .  A
O121        C128   1.265       .  A
C122        O129   1.260       .  A
C122        O123   1.263       .  A
C122       C1339   1.474       .  S
C124        O126   1.263       .  A
C124        O130   1.259       .  A
C124       C1296   1.478       .  S
C128       C1289   1.477       .  S
In131       O133   2.234       .  S
In131       O134   2.242       .  S
In131       O142   2.231       .  S
In131       O136   2.252       .  S
In131       O138   2.276       .  S
In131       O139   2.238       .  S
In131       O140   2.205       .  S
In131       O143   2.234       .  S
C132        O138   1.268       .  A
C132        O140   1.257       .  A
C132       C1266   1.474       .  S
O133        C141   1.262       .  A
O134        C141   1.265       .  A
C135        O142   1.260       .  A
C135        O136   1.265       .  A
C135       C1276   1.476       .  S
C137        O139   1.264       .  A
C137        O143   1.261       .  A
C137       C1259   1.477       .  S
C141       C1246   1.477       .  S
In144       O146   2.241       .  S
In144       O147   2.235       .  S
In144       O155   2.226       .  S
In144       O149   2.253       .  S
In144       O151   2.263       .  S
In144       O152   2.241       .  S
In144       O153   2.210       .  S
In144       O156   2.232       .  S
C145        O151   1.268       .  A
C145        O153   1.259       .  A
C145       C1236   1.474       .  S
O146        C154   1.262       .  A
O147        C154   1.265       .  A
C148        O155   1.259       .  A
C148        O149   1.265       .  A
C148       C1279   1.473       .  S
C150        O152   1.266       .  A
C150        O156   1.262       .  A
C150       C1309   1.479       .  S
C154       C1226   1.477       .  S
In157       O159   2.232       .  S
In157       O160   2.234       .  S
In157       O168   2.214       .  S
In157       O162   2.245       .  S
In157       O164   2.256       .  S
In157       O165   2.219       .  S
In157       O166   2.199       .  S
In157       O169   2.241       .  S
C158        O164   1.269       .  A
C158        O166   1.259       .  A
C158       C1206   1.468       .  S
O159        C167   1.263       .  A
O160        C167   1.265       .  A
C161        O168   1.260       .  A
C161        O162   1.266       .  A
C161       C1216   1.472   1_556  S
C163        O165   1.265       .  A
C163        O169   1.262       .  A
C163       C1379   1.474       .  S
C167       C1199   1.472       .  S
In170       O172   2.229       .  S
In170       O173   2.245       .  S
In170       O181   2.233       .  S
In170       O175   2.243       .  S
In170       O177   2.260       .  S
In170       O178   2.246       .  S
In170       O179   2.212       .  S
In170       O182   2.228       .  S
C171        O177   1.266       .  A
C171        O179   1.258       .  A
C171       C1526   1.468       .  S
O172        C180   1.261       .  A
O173        C180   1.265       .  A
C174        O181   1.259       .  A
C174        O175   1.262       .  A
C174       C1219   1.469       .  S
C176        O178   1.265       .  A
C176        O182   1.261       .  A
C176       C1329   1.477       .  S
C180       C1186   1.476       .  S
In183       O185   2.237       .  S
In183       O186   2.245       .  S
In183       O194   2.229       .  S
In183       O188   2.234       .  S
In183       O190   2.258       .  S
In183       O191   2.258       .  S
In183       O192   2.207       .  S
In183       O195   2.225       .  S
C184        O190   1.267       .  A
C184        O192   1.261       .  A
C184       C1166   1.470       .  S
O185        C193   1.263       .  A
O186        C193   1.267       .  A
C187        O194   1.261       .  A
C187        O188   1.263       .  A
C187       C1176   1.468       .  S
C189        O191   1.265       .  A
C189        O195   1.258       .  A
C189       C1156   1.479       .  S
C193       C1146   1.480       .  S
In196       O198   2.220       .  S
In196       O199   2.226       .  S
In196       O207   2.225       .  S
In196       O201   2.230       .  S
In196       O203   2.257       .  S
In196       O204   2.239       .  S
In196       O205   2.206       .  S
In196       O208   2.223       .  S
C197        O203   1.267       .  A
C197        O205   1.259       .  A
C197       C1369   1.468       .  S
O198        C206   1.264       .  A
O199        C206   1.265       .  A
C200        O207   1.261       .  A
C200        O201   1.263       .  A
C200       C1179   1.467       .  S
C202        O204   1.263       .  A
C202        O208   1.258       .  A
C202       C1209   1.473       .  S
C206       C1136   1.469       .  S
In209       O211   2.236       .  S
In209       O212   2.243       .  S
In209       O220   2.229       .  S
In209       O214   2.257       .  S
In209       O216   2.265       .  S
In209       O217   2.244       .  S
In209       O218   2.206       .  S
In209       O221   2.233       .  S
C210        O216   1.268       .  A
C210        O218   1.259       .  A
C210       C1299   1.474       .  S
O211        C219   1.262       .  A
O212        C219   1.266       .  A
C213        O220   1.259       .  A
C213        O214   1.265       .  A
C213       C1126   1.475       .  S
C215        O217   1.266       .  A
C215        O221   1.262       .  A
C215       C1239   1.481       .  S
C219       C1116   1.477       .  S
In222       O224   2.245       .  S
In222       O225   2.248       .  S
In222       O233   2.226       .  S
In222       O227   2.255       .  S
In222       O229   2.267       .  S
In222       O230   2.237       .  S
In222       O231   2.200       .  S
In222       O234   2.243       .  S
C223        O229   1.267       .  A
C223        O231   1.258       .  A
C223       C1106   1.468       .  S
O224        C232   1.261       .  A
O225        C232   1.264       .  A
C226        O233   1.258       .  A
C226        O227   1.264       .  A
C226       C1129   1.476   1_556  S
C228        O230   1.264       .  A
C228        O234   1.262       .  A
C228       C1169   1.479       .  S
C232       C1096   1.479       .  S
In235       O237   2.234       .  S
In235       O238   2.232       .  S
In235       O246   2.234       .  S
In235       O240   2.246       .  S
In235       O242   2.263       .  S
In235       O243   2.248       .  S
In235       O244   2.215       .  S
In235       O247   2.232       .  S
C236        O242   1.269       .  A
C236        O244   1.260       .  A
C236       C1076   1.476       .  S
O237        C245   1.265       .  A
O238        C245   1.267       .  A
C239        O246   1.260       .  A
C239        O240   1.264       .  A
C239       C1086   1.471       .  S
C241        O243   1.265       .  A
C241        O247   1.258       .  A
C241       C1439   1.478       .  S
C245       C1069   1.478       .  S
In248       O250   2.257       .  S
In248       O251   2.211       .  S
In248       O259   2.240       .  S
In248       O253   2.246       .  S
In248       O255   2.256       .  S
In248       O256   2.240       .  S
In248       O257   2.236       .  S
In248       O260   2.239       .  S
C249        O255   1.258       .  A
C249        O257   1.258       .  A
C249       C1159   1.472       .  S
O250        C258   1.266       .  A
O251        C258   1.262       .  A
C252        O259   1.256       .  A
C252        O253   1.259       .  A
C252       C1089   1.471       .  S
C254        O256   1.262       .  A
C254        O260   1.260       .  A
C254       C1109   1.476       .  S
C258       C1056   1.477       .  S
In261       O263   2.225       .  S
In261       O264   2.232       .  S
In261       O272   2.236       .  S
In261       O266   2.245       .  S
In261       O268   2.268       .  S
In261       O269   2.245       .  S
In261       O270   2.204       .  S
In261       O273   2.232       .  S
C262        O268   1.270       .  A
C262        O270   1.260       .  A
C262       C1559   1.477       .  S
O263        C271   1.264       .  A
O264        C271   1.268       .  A
C265        O272   1.261       .  A
C265        O266   1.265       .  A
C265       C1046   1.477       .  S
C267        O269   1.265       .  A
C267        O273   1.261       .  A
C267       C1469   1.479       .  S
C271       C1036   1.474       .  S
In274       O276   2.234       .  S
In274       O277   2.243       .  S
In274       O285   2.242       .  S
In274       O279   2.246       .  S
In274       O281   2.265       .  S
In274       O282   2.258       .  S
In274       O283   2.207       .  S
In274       O286   2.243       .  S
C275        O281   1.268       .  A
C275        O283   1.260       .  A
C275       C1026   1.475       .  S
O276        C284   1.263       .  A
O277        C284   1.267       .  A
C278        O285   1.261       .  A
C278        O279   1.264       .  A
C278       C1049   1.479       .  S
C280        O282   1.265       .  A
C280        O286   1.259       .  A
C280       C1269   1.484       .  S
C284       C1016   1.478       .  S
In287       O289   2.237       .  S
In287       O290   2.235       .  S
In287       O298   2.221       .  S
In287       O292   2.251       .  S
In287       O294   2.265       .  S
In287       O295   2.246       .  S
In287       O296   2.198       .  S
In287       O299   2.233       .  S
C288        O294   1.269       .  A
C288        O296   1.259       .  A
C288       C1256   1.471       .  S
O289        C297   1.264       .  A
O290        C297   1.266       .  A
C291        O298   1.261       .  A
C291        O292   1.265       .  A
C291       C1009   1.472       .  S
C293        O295   1.264       .  A
C293        O299   1.260       .  A
C293       C1029   1.477       .  S
C297        C996   1.475       .  S
In300       O302   2.247       .  S
In300       O303   2.239       .  S
In300       O311   2.229       .  S
In300       O305   2.257       .  S
In300       O307   2.272       .  S
In300       O308   2.247       .  S
In300       O309   2.203       .  S
In300       O312   2.238       .  S
C301        O307   1.269       .  A
C301        O309   1.259       .  A
C301       C1429   1.476       .  S
O302        C310   1.264       .  A
O303        C310   1.265       .  A
C304        O311   1.261       .  A
C304        O305   1.265       .  A
C304       C1006   1.478   1_556  S
C306        O308   1.264       .  A
C306        O312   1.260       .  A
C306       C1079   1.479       .  S
C310        C986   1.481       .  S
In313       O315   2.230       .  S
In313       O316   2.228       .  S
In313       O324   2.231       .  S
In313       O318   2.247       .  S
In313       O320   2.265       .  S
In313       O321   2.238       .  S
In313       O322   2.203       .  S
In313       O325   2.238       .  S
C314        O320   1.268       .  A
C314        O322   1.258       .  A
C314        C969   1.471       .  S
O315        C323   1.264       .  A
O316        C323   1.265       .  A
C317        O324   1.260       .  A
C317        O318   1.264       .  A
C317        C976   1.476       .  S
C319        O321   1.262       .  A
C319        O325   1.260       .  A
C319        C959   1.477       .  S
C323       C1139   1.471       .  S
In326       O328   2.235       .  S
In326       O329   2.229       .  S
In326       O337   2.235       .  S
In326       O331   2.245       .  S
In326       O333   2.266       .  S
In326       O334   2.245       .  S
In326       O335   2.192       .  S
In326       O338   2.229       .  S
C327        O333   1.270       .  A
C327        O335   1.259       .  A
C327        C946   1.470       .  S
O328        C336   1.265       .  A
O329        C336   1.266       .  A
C330        O337   1.261       .  A
C330        O331   1.264       .  A
C330        C979   1.474       .  S
C332        O334   1.264       .  A
C332        O338   1.259       .  A
C332        C936   1.476       .  S
C336       C1516   1.475       .  S
In339       O341   2.233       .  S
In339       O342   2.237       .  S
In339       O350   2.231       .  S
In339       O344   2.248       .  S
In339       O346   2.264       .  S
In339       O347   2.243       .  S
In339       O348   2.195       .  S
In339       O351   2.226       .  S
C340        O346   1.270       .  A
C340        O348   1.259       .  A
C340        C916   1.468       .  S
O341        C349   1.265       .  A
O342        C349   1.267       .  A
C343        O350   1.261       .  A
C343        O344   1.265       .  A
C343        C926   1.476       .  S
C345        O347   1.265       .  A
C345        O351   1.259       .  A
C345        C909   1.476       .  S
C349       C1399   1.476       .  S
In352       O354   2.235       .  S
In352       O355   2.232       .  S
In352       O363   2.233       .  S
In352       O357   2.250       .  S
In352       O359   2.268       .  S
In352       O360   2.236       .  S
In352       O361   2.205       .  S
In352       O364   2.242       .  S
C353        O359   1.268       .  A
C353        O361   1.258       .  A
C353        C896   1.471       .  S
O354        C362   1.265       .  A
O355        C362   1.265       .  A
C356        O363   1.260       .  A
C356        O357   1.264       .  A
C356        C929   1.473       .  S
C358        O360   1.262       .  A
C358        O364   1.259       .  A
C358        C966   1.475       .  S
C362       C1196   1.474       .  S
In365       O367   2.227       .  S
In365       O368   2.240       .  S
In365       O376   2.223       .  S
In365       O370   2.237       .  S
In365       O372   2.268       .  S
In365       O373   2.240       .  S
In365       O374   2.202       .  S
In365       O377   2.240       .  S
C366        O372   1.269       .  A
C366        O374   1.259       .  A
C366        C876   1.474       .  S
O367        C375   1.263       .  A
O368        C375   1.266       .  A
C369        O376   1.261       .  A
C369        O370   1.265       .  A
C369        C886   1.472       .  S
C371        O373   1.264       .  A
C371        O377   1.261       .  A
C371        C869   1.479       .  S
C375       C1229   1.473       .  S
In378       O380   2.230       .  S
In378       O381   2.228       .  S
In378       O389   2.224       .  S
In378       O383   2.235       .  S
In378       O385   2.257       .  S
In378       O386   2.239       .  S
In378       O387   2.200       .  S
In378       O390   2.231       .  S
C379        O385   1.268       .  A
C379        O387   1.260       .  A
C379        C856   1.468       .  S
O380        C388   1.263       .  A
O381        C388   1.266       .  A
C382        O389   1.260       .  A
C382        O383   1.263       .  A
C382        C889   1.470       .  S
C384        O386   1.264       .  A
C384        O390   1.260       .  A
C384        C949   1.474       .  S
C388       C1189   1.471       .  S
In391       O393   2.261       .  S
In391       O394   2.209       .  S
In391       O402   2.238       .  S
In391       O396   2.248       .  S
In391       O398   2.261       .  S
In391       O399   2.228       .  S
In391       O400   2.233       .  S
In391       O403   2.247       .  S
C392        O398   1.260       .  A
C392        O400   1.258       .  A
C392        C836   1.474       .  S
O393        C401   1.265       .  A
O394        C401   1.260       .  A
C395        O402   1.258       .  A
C395        O396   1.262       .  A
C395        C846   1.476       .  S
C397        O399   1.262       .  A
C397        O403   1.261       .  A
C397        C826   1.475       .  S
C401       C1059   1.473       .  S
In404       O406   2.235       .  S
In404       O407   2.229       .  S
In404       O415   2.238       .  S
In404       O409   2.239       .  S
In404       O411   2.261       .  S
In404       O412   2.248       .  S
In404       O413   2.210       .  S
In404       O416   2.224       .  S
C405        O411   1.269       .  A
C405        O413   1.260       .  A
C405        C816   1.474       .  S
O406        C414   1.265       .  A
O407        C414   1.267       .  A
C408        O415   1.262       .  A
C408        O409   1.264       .  A
C408        C849   1.474       .  S
C410        O412   1.265       .  A
C410        O416   1.258       .  A
C410        C879   1.475       .  S
C414       C1286   1.476       .  S
In417       O419   2.238       .  S
In417       O420   2.248       .  S
In417       O428   2.225       .  S
In417       O422   2.253       .  S
In417       O424   2.261       .  S
In417       O425   2.239       .  S
In417       O426   2.217       .  S
In417       O429   2.235       .  S
C418        O424   1.267       .  A
C418        O426   1.259       .  A
C418        C796   1.470       .  S
O419        C427   1.262       .  A
O420        C427   1.264       .  A
C421        O428   1.259       .  A
C421        O422   1.264       .  A
C421        C806   1.475       .  S
C423        O425   1.265       .  A
C423        O429   1.261       .  A
C423        C919   1.478       .  S
C427       C1349   1.478       .  S
In430       O432   2.232       .  S
In430       O433   2.243       .  S
In430       O441   2.235       .  S
In430       O435   2.248       .  S
In430       O437   2.270       .  S
In430       O438   2.242       .  S
In430       O439   2.209       .  S
In430       O442   2.236       .  S
C431        O437   1.267       .  A
C431        O439   1.257       .  A
C431        C786   1.473       .  S
O432        C440   1.262       .  A
O433        C440   1.266       .  A
C434        O441   1.260       .  A
C434        O435   1.263       .  A
C434        C809   1.473       .  S
C436        O438   1.265       .  A
C436        O442   1.260       .  A
C436        C776   1.478       .  S
C440       C1039   1.477       .  S
In443       O445   2.232       .  S
In443       O446   2.241       .  S
In443       O454   2.216       .  S
In443       O448   2.250       .  S
In443       O450   2.252       .  S
In443       O451   2.248       .  S
In443       O452   2.206       .  S
In443       O455   2.212       .  S
C444        O450   1.271       .  A
C444        O452   1.262       .  A
C444        C756   1.474       .  S
O445        C453   1.264       .  A
O446        C453   1.268       .  A
C447        O454   1.262       .  A
C447        O448   1.268       .  A
C447        C766   1.477       .  S
C449        O451   1.269       .  A
C449        O455   1.262       .  A
C449        C839   1.479       .  S
C453       C1099   1.476       .  S
In456       O458   2.245       .  S
In456       O459   2.247       .  S
In456       O467   2.230       .  S
In456       O461   2.262       .  S
In456       O463   2.265       .  S
In456       O464   2.238       .  S
In456       O465   2.209       .  S
In456       O468   2.240       .  S
C457        O463   1.267       .  A
C457        O465   1.258       .  A
C457        C956   1.472       .  S
O458        C466   1.262       .  A
O459        C466   1.264       .  A
C460        O467   1.258       .  A
C460        O461   1.264       .  A
C460        C769   1.474       .  S
C462        O464   1.264       .  A
C462        O468   1.262       .  A
C462        C899   1.479       .  S
C466       C1359   1.480       .  S
In469       O471   2.235       .  S
In469       O472   2.234       .  S
In469       O480   2.237       .  S
In469       O474   2.237       .  S
In469       O476   2.257       .  S
In469       O477   2.253       .  S
In469       O478   2.216       .  S
In469       O481   2.234       .  S
C470        O476   1.268       .  A
C470        O478   1.260       .  A
C470        C736   1.471       .  S
O471        C479   1.264       .  A
O472        C479   1.267       .  A
C473        O480   1.262       .  A
C473        O474   1.265       .  A
C473        C746   1.476       .  S
C475        O477   1.265       .  A
C475        O481   1.259       .  A
C475        C726   1.481       .  S
C479        C989   1.475       .  S
In482       O484   2.245       .  S
In482       O485   2.240       .  S
In482       O493   2.253       .  S
In482       O487   2.243       .  S
In482       O489   2.271       .  S
In482       O490   2.260       .  S
In482       O491   2.197       .  S
In482       O494   2.232       .  S
C483        O489   1.267       .  A
C483        O491   1.259       .  A
C483        C829   1.469       .  S
O484        C492   1.263       .  A
O485        C492   1.265       .  A
C486        O493   1.260       .  A
C486        O487   1.260       .  A
C486        C749   1.475       .  S
C488        O490   1.262       .  A
C488        O494   1.257       .  A
C488        C759   1.476       .  S
C492       C1149   1.480       .  S
In495       O497   2.241       .  S
In495       O498   2.233       .  S
In495       O506   2.230       .  S
In495       O500   2.249       .  S
In495       O502   2.262       .  S
In495       O503   2.251       .  S
In495       O504   2.199       .  S
In495       O507   2.235       .  S
C496        O502   1.268       .  A
C496        O504   1.259       .  A
C496        C709   1.469       .  S
O497        C505   1.264       .  A
O498        C505   1.266       .  A
C499        O506   1.260       .  A
C499        O500   1.263       .  A
C499        C716   1.470       .  S
C501        O503   1.264       .  A
C501        O507   1.259       .  A
C501        C739   1.479       .  S
C505       C1066   1.478       .  S
In508       O510   2.239       .  S
In508       O511   2.240       .  S
In508       O519   2.233       .  S
In508       O513   2.247       .  S
In508       O515   2.263       .  S
In508       O516   2.253       .  S
In508       O517   2.204       .  S
In508       O520   2.237       .  S
C509        O515   1.267       .  A
C509        O517   1.259       .  A
C509        C906   1.468       .  S
O510        C518   1.263       .  A
O511        C518   1.265       .  A
C512        O519   1.261       .  A
C512        O513   1.263       .  A
C512        C719   1.477       .  S
C514        O516   1.263       .  A
C514        O520   1.259       .  A
C514        C799   1.480       .  S
C518       C1479   1.478       .  S
In521       O523   2.240       .  S
In521       O524   2.233       .  S
In521       O532   2.236       .  S
In521       O526   2.242       .  S
In521       O528   2.265       .  S
In521       O529   2.246       .  S
In521       O530   2.204       .  S
In521       O533   2.238       .  S
C522        O528   1.267       .  A
C522        O530   1.258       .  A
C522        C686   1.469       .  S
O523        C531   1.264       .  A
O524        C531   1.265       .  A
C525        O532   1.261       .  A
C525        O526   1.263       .  A
C525        C696   1.476       .  S
C527        O529   1.263       .  A
C527        O533   1.259       .  A
C527        C676   1.477       .  S
C531       C1019   1.478       .  S
In534       O536   2.233       .  S
In534       O537   2.238       .  S
In534       O545   2.234       .  S
In534       O539   2.249       .  S
In534       O541   2.271       .  S
In534       O542   2.244       .  S
In534       O543   2.199       .  S
In534       O546   2.241       .  S
C535        O541   1.268       .  A
C535        O543   1.258       .  A
C535        C866   1.472       .  S
O536        C544   1.264       .  A
O537        C544   1.266       .  A
C538        O545   1.261       .  A
C538        O539   1.264       .  A
C538        C699   1.475       .  S
C540        O542   1.263       .  A
C540        O546   1.260       .  A
C540        C819   1.478       .  S
C544       C1119   1.476       .  S
In547       O549   2.234       .  S
In547       O550   2.235       .  S
In547       O558   2.213       .  S
In547       O552   2.255       .  S
In547       O554   2.268       .  S
In547       O555   2.233       .  S
In547       O556   2.207       .  S
In547       O559   2.226       .  S
C548        O554   1.269       .  A
C548        O556   1.259       .  A
C548        C729   1.474       .  S
O549        C557   1.263       .  A
O550        C557   1.265       .  A
C551        O558   1.259       .  A
C551        O552   1.266       .  A
C551        C669   1.470       .  S
C553        O555   1.266       .  A
C553        O559   1.262       .  A
C553        C706   1.475       .  S
C557       C1419   1.473       .  S
In560       O562   2.233       .  S
In560       O563   2.249       .  S
In560       O571   2.236       .  S
In560       O565   2.248       .  S
In560       O567   2.265       .  S
In560       O568   2.241       .  S
In560       O569   2.206       .  S
In560       O572   2.231       .  S
C561        O567   1.267       .  A
C561        O569   1.258       .  A
C561        C656   1.469       .  S
O562        C570   1.262       .  A
O563        C570   1.266       .  A
C564        O571   1.260       .  A
C564        O565   1.263       .  A
C564        C666   1.476       .  S
C566        O568   1.265       .  A
C566        O572   1.261       .  A
C566        C689   1.477       .  S
C570       C1249   1.476       .  S
In573       O575   2.232       .  S
In573       O576   2.230       .  S
In573       O584   2.230       .  S
In573       O578   2.245       .  S
In573       O580   2.262       .  S
In573       O581   2.239       .  S
In573       O582   2.197       .  S
In573       O585   2.238       .  S
C574        O580   1.270       .  A
C574        O582   1.260       .  A
C574        C636   1.471       .  S
O575        C583   1.263       .  A
O576        C583   1.267       .  A
C577        O584   1.261       .  A
C577        O578   1.265       .  A
C577        C649   1.476       .  S
C579        O581   1.264       .  A
C579        O585   1.261       .  A
C579        C789   1.479       .  S
C583       C1459   1.475       .  S
In586       O588   2.236       .  S
In586       O589   2.235       .  S
In586       O597   2.234       .  S
In586       O591   2.249       .  S
In586       O593   2.265       .  S
In586       O594   2.233       .  S
In586       O595   2.203       .  S
In586       O598   2.236       .  S
C587        O593   1.269       .  A
C587        O595   1.259       .  A
C587        C939   1.470       .  S
O588        C596   1.265       .  A
O589        C596   1.266       .  A
C590        O597   1.261       .  A
C590        O591   1.264       .  A
C590        C646   1.476       .  S
C592        O594   1.263       .  A
C592        O598   1.260       .  A
C592        C859   1.474       .  S
C596       C1319   1.477       .  S
In599       O601   2.238       .  S
In599       O602   2.237       .  S
In599       O610   2.224       .  S
In599       O604   2.258       .  S
In599       O606   2.270       .  S
In599       O607   2.244       .  S
In599       O608   2.209       .  S
In599       O611   2.233       .  S
C600        O606   1.269       .  A
C600        O608   1.260       .  A
C600        C679   1.476       .  S
O601        C609   1.264       .  A
O602        C609   1.265       .  A
C603        O610   1.260       .  A
C603        O604   1.265       .  A
C603        C626   1.479       .  S
C605        O607   1.263       .  A
C605        O611   1.260       .  A
C605        C659   1.477       .  S
C609        C999   1.478       .  S
In612       O614   2.233       .  S
In612       O615   2.234       .  S
In612       O623   2.229       .  S
In612       O617   2.251       .  S
In612       O619   2.272       .  S
In612       O620   2.247       .  S
In612       O621   2.200       .  S
In612       O624   2.228       .  S
C613        O619   1.269       .  A
C613        O621   1.259       .  A
C613        C779   1.474       .  S
O614        C622   1.265       .  A
O615        C622   1.267       .  A
C616        O623   1.261       .  A
C616        O617   1.264       .  A
C616        C629   1.470       .  S
C618        O620   1.264       .  A
C618        O624   1.259       .  A
C618        C639   1.476       .  S
C622       C1549   1.475       .  S
C625        C626   1.405       .  A
C625        C630   1.396       .  A
C625        H632   1.084       .  S
C626        C627   1.408       .  A
C627        C628   1.402       .  A
C627        F634   1.357       .  S
C628        C629   1.403       .  A
C628        H633   1.084       .  S
C629        C630   1.402       .  A
C630        F631   1.358       .  S
C635        C636   1.405       .  A
C635        C640   1.394       .  A
C635        H642   1.084       .  S
C636        C637   1.402       .  A
C637        C638   1.400       .  A
C637        F644   1.357       .  S
C638        C639   1.408       .  A
C638        H643   1.082       .  S
C639        C640   1.405       .  A
C640        F641   1.358       .  S
C645        C646   1.404       .  A
C645        C650   1.399       .  A
C645        H652   1.083       .  S
C646        C647   1.407       .  A
C647        C648   1.398       .  A
C647        F654   1.358       .  S
C648        C649   1.404       .  A
C648        H653   1.084       .  S
C649        C650   1.406       .  A
C650        F651   1.357       .  S
C655        C656   1.404       .  A
C655        C660   1.395       .  A
C655        H662   1.085       .  S
C656        C657   1.402       .  A
C657        C658   1.399       .  A
C657        F664   1.357       .  S
C658        C659   1.408       .  A
C658        H663   1.083       .  S
C659        C660   1.406       .  A
C660        F661   1.358       .  S
C665        C666   1.407       .  A
C665        C670   1.400       .  A
C665        H672   1.085       .  S
C666        C667   1.405       .  A
C667        C668   1.396       .  A
C667        F674   1.357       .  S
C668        C669   1.404       .  A
C668        H673   1.085       .  S
C669        C670   1.402       .  A
C670        F671   1.357       .  S
C675        C676   1.402       .  A
C675        C680   1.394       .  A
C675        H682   1.085       .  S
C676        C677   1.410       .  A
C677        C678   1.402       .  A
C677        F684   1.357       .  S
C678        C679   1.403       .  A
C678        H683   1.084       .  S
C679        C680   1.408       .  A
C680        F681   1.358       .  S
C685        C686   1.403       .  A
C685        C690   1.394       .  A
C685        H692   1.086       .  S
C686        C687   1.402       .  A
C687        C688   1.400       .  A
C687        F694   1.357       .  S
C688        C689   1.408       .  A
C688        H693   1.084       .  S
C689        C690   1.406       .  A
C690        F691   1.357       .  S
C695        C696   1.404       .  A
C695        C700   1.398       .  A
C695        H702   1.085       .  S
C696        C697   1.407       .  A
C697        C698   1.399       .  A
C697        F704   1.358       .  S
C698        C699   1.403       .  A
C698        H703   1.084       .  S
C699        C700   1.406       .  A
C700        F701   1.357       .  S
C705        C706   1.402       .  A
C705        C710   1.393       .  A
C705        H712   1.084       .  S
C706        C707   1.410       .  A
C707        C708   1.399       .  A
C707        F714   1.357       .  S
C708        C709   1.401       .  A
C708        H713   1.084       .  S
C709        C710   1.406       .  A
C710        F711   1.358       .  S
C715        C716   1.401       .  A
C715        C720   1.397       .  A
C715        H722   1.084       .  S
C716        C717   1.404       .  A
C717        C718   1.399       .  A
C717        F724   1.358       .  S
C718        C719   1.405       .  A
C718        H723   1.084       .  S
C719        C720   1.408       .  A
C720        F721   1.357       .  S
C725        C726   1.409       .  A
C725        C730   1.401       .  A
C725        H732   1.083       .  S
C726        C727   1.405       .  A
C727        C728   1.396       .  A
C727        F734   1.357       .  S
C728        C729   1.405       .  A
C728        H733   1.086       .  S
C729        C730   1.403       .  A
C730        F731   1.358       .  S
C735        C736   1.400       .  A
C735        C740   1.398       .  A
C735        H742   1.085       .  S
C736        C737   1.407       .  A
C737        C738   1.397       .  A
C737        F744   1.358       .  S
C738        C739   1.404       .  A
C738        H743   1.084       .  S
C739        C740   1.411       .  A
C740        F741   1.357       .  S
C745        C746   1.403       .  A
C745        C750   1.396       .  A
C745        H752   1.084       .  S
C746        C747   1.408       .  A
C747        C748   1.401       .  A
C747        F754   1.358       .  S
C748        C749   1.404       .  A
C748        H753   1.083       .  S
C749        C750   1.406       .  A
C750        F751   1.357       .  S
C755        C756   1.406       .  A
C755        C760   1.397       .  A
C755        H762   1.085       .  S
C756        C757   1.403       .  A
C757        C758   1.398       .  A
C757        F764   1.357       .  S
C758        C759   1.406       .  A
C758        H763   1.083       .  S
C759        C760   1.406       .  A
C760        F761   1.358       .  S
C765        C766   1.407       .  A
C765        C770   1.398       .  A
C765        H772   1.085       .  S
C766        C767   1.404       .  A
C767        C768   1.399       .  A
C767        F774   1.357       .  S
C768        C769   1.406       .  A
C768        H773   1.084       .  S
C769        C770   1.403       .  A
C770        F771   1.357       .  S
C775        C776   1.401       .  A
C775        C780   1.393       .  A
C775        H782   1.085       .  S
C776        C777   1.411       .  A
C777        C778   1.402       .  A
C777        F784   1.357       .  S
C778        C779   1.402       .  A
C778        H783   1.084       .  S
C779        C780   1.407       .  A
C780        F781   1.358       .  S
C785        C786   1.404       .  A
C785        C790   1.394       .  A
C785        H792   1.085       .  S
C786        C787   1.403       .  A
C787        C788   1.401       .  A
C787        F794   1.357       .  S
C788        C789   1.409       .  A
C788        H793   1.083       .  S
C789        C790   1.406       .  A
C790        F791   1.357       .  S
C795        C796   1.404       .  A
C795        C800   1.398       .  A
C795        H802   1.084       .  S
C796        C797   1.402       .  A
C797        C798   1.398       .  A
C797        F804   1.358       .  S
C798        C799   1.408       .  A
C798        H803   1.083       .  S
C799        C800   1.407       .  A
C800        F801   1.357       .  S
C805        C806   1.406       .  A
C805        C810   1.398       .  A
C805        H812   1.085       .  S
C806        C807   1.404       .  A
C807        C808   1.399       .  A
C807        F814   1.357       .  S
C808        C809   1.405       .  A
C808        H813   1.085       .  S
C809        C810   1.404       .  A
C810        F811   1.357       .  S
C815        C816   1.404       .  A
C815        C820   1.395       .  A
C815        H822   1.086       .  S
C816        C817   1.404       .  A
C817        C818   1.401       .  A
C817        F824   1.357       .  S
C818        C819   1.408       .  A
C818        H823   1.082       .  S
C819        C820   1.406       .  A
C820        F821   1.358       .  S
C825        C826   1.402       .  A
C825        C830   1.390       .  A
C825        H832   1.084       .  S
C826        C827   1.410       .  A
C827        C828   1.403       .  A
C827        F834   1.357       .  S
C828        C829   1.402       .  A
C828        H833   1.084       .  S
C829        C830   1.404       .  A
C830        F831   1.358       .  S
C835        C836   1.401       .  A
C835        C840   1.396       .  A
C835        H842   1.084       .  S
C836        C837   1.409       .  A
C837        C838   1.400       .  A
C837        F844   1.358       .  S
C838        C839   1.404       .  A
C838        H843   1.083       .  S
C839        C840   1.410       .  A
C840        F841   1.358       .  S
C845        C846   1.403       .  A
C845        C850   1.397       .  A
C845        H852   1.084       .  S
C846        C847   1.409       .  A
C847        C848   1.399       .  A
C847        F854   1.358       .  S
C848        C849   1.403       .  A
C848        H853   1.085       .  S
C849        C850   1.406       .  A
C850        F851   1.357       .  S
C855        C856   1.402       .  A
C855        C860   1.392       .  A
C855        H862   1.086       .  S
C856        C857   1.403       .  A
C857        C858   1.400       .  A
C857        F864   1.357       .  S
C858        C859   1.408       .  A
C858        H863   1.084       .  S
C859        C860   1.405       .  A
C860        F861   1.358       .  S
C865        C866   1.404       .  A
C865        C870   1.393       .  A
C865        H872   1.086       .  S
C866        C867   1.404       .  A
C867        C868   1.402       .  A
C867        F874   1.357       .  S
C868        C869   1.409       .  A
C868        H873   1.083       .  S
C869        C870   1.406       .  A
C870        F871   1.357       .  S
C875        C876   1.402       .  A
C875        C880   1.401       .  A
C875        H882   1.084       .  S
C876        C877   1.408       .  A
C877        C878   1.393       .  A
C877        F884   1.358       .  S
C878        C879   1.400       .  A
C878        H883   1.084       .  S
C879        C880   1.411       .  A
C880        F881   1.358       .  S
C885        C886   1.404       .  A
C885        C890   1.396       .  A
C885        H892   1.085       .  S
C886        C887   1.406       .  A
C887        C888   1.396       .  A
C887        F894   1.357       .  S
C888        C889   1.402       .  A
C888        H893   1.084       .  S
C889        C890   1.405       .  A
C890        F891   1.358       .  S
C895        C896   1.401       .  A
C895        C900   1.401       .  A
C895        H902   1.084       .  S
C896        C897   1.406       .  A
C897        C898   1.395       .  A
C897        F904   1.358       .  S
C898        C899   1.403       .  A
C898        H903   1.084       .  S
C899        C900   1.411       .  A
C900        F901   1.357       .  S
C905        C906   1.400       .  A
C905        C910   1.399       .  A
C905        H912   1.084       .  S
C906        C907   1.406       .  A
C907        C908   1.394       .  A
C907        F914   1.358       .  S
C908        C909   1.402       .  A
C908        H913   1.085       .  S
C909        C910   1.412       .  A
C910        F911   1.357       .  S
C915        C916   1.402       .  A
C915        C920   1.393       .  A
C915        H922   1.086       .  S
C916        C917   1.402       .  A
C917        C918   1.401       .  A
C917        F924   1.357       .  S
C918        C919   1.409       .  A
C918        H923   1.083       .  S
C919        C920   1.406       .  A
C920        F921   1.357       .  S
C925        C926   1.404       .  A
C925        C930   1.399       .  A
C925        H932   1.084       .  S
C926        C927   1.407       .  A
C927        C928   1.398       .  A
C927        F934   1.358       .  S
C928        C929   1.403       .  A
C928        H933   1.084       .  S
C929        C930   1.405       .  A
C930        F931   1.357       .  S
C935        C936   1.408       .  A
C935        C940   1.400       .  A
C935        H942   1.082       .  S
C936        C937   1.405       .  A
C937        C938   1.395       .  A
C937        F944   1.358       .  S
C938        C939   1.404       .  A
C938        H943   1.084       .  S
C939        C940   1.402       .  A
C940        F941   1.357       .  S
C945        C946   1.404       .  A
C945        C950   1.392       .  A
C945        H952   1.086       .  S
C946        C947   1.403       .  A
C947        C948   1.400       .  A
C947        F954   1.357       .  S
C948        C949   1.408       .  A
C948        H953   1.083       .  S
C949        C950   1.404       .  A
C950        F951   1.358       .  S
C955        C956   1.404       .  A
C955        C960   1.395       .  A
C955        H962   1.085       .  S
C956        C957   1.403       .  A
C957        C958   1.400       .  A
C957        F964   1.357       .  S
C958        C959   1.407       .  A
C958        H963   1.083       .  S
C959        C960   1.406       .  A
C960        F961   1.358       .  S
C965        C966   1.402       .  A
C965        C970   1.392       .  A
C965        H972   1.084       .  S
C966        C967   1.410       .  A
C967        C968   1.401       .  A
C967        F974   1.357       .  S
C968        C969   1.402       .  A
C968        H973   1.085       .  S
C969        C970   1.407       .  A
C970        F971   1.358       .  S
C975        C976   1.403       .  A
C975        C980   1.398       .  A
C975        H982   1.084       .  S
C976        C977   1.408       .  A
C977        C978   1.398       .  A
C977        F984   1.358       .  S
C978        C979   1.403       .  A
C978        H983   1.084       .  S
C979        C980   1.406       .  A
C980        F981   1.357       .  S
C985        C986   1.407       .  A
C985        C990   1.400       .  A
C985        H992   1.083       .  S
C986        C987   1.407       .  A
C987        C988   1.399       .  A
C987        F994   1.358       .  S
C988        C989   1.405       .  A
C988        H993   1.085       .  S
C989        C990   1.403       .  A
C990        F991   1.357       .  S
C995        C996   1.406       .  A
C995       C1000   1.399       .  A
C995       H1002   1.085       .  S
C996        C997   1.404       .  A
C997        C998   1.399       .  A
C997       F1004   1.357       .  S
C998        C999   1.406       .  A
C998       H1003   1.084       .  S
C999       C1000   1.406       .  A
C1000      F1001   1.358       .  S
C1005      C1006   1.404       .  A
C1005      C1010   1.396       .  A
C1005      H1012   1.085       .  S
C1006      C1007   1.408       .  A
C1007      C1008   1.402       .  A
C1007      F1014   1.357       .  S
C1008      C1009   1.404       .  A
C1008      H1013   1.084       .  S
C1009      C1010   1.404       .  A
C1010      F1011   1.358       .  S
C1015      C1016   1.402       .  A
C1015      C1020   1.400       .  A
C1015      H1022   1.084       .  S
C1016      C1017   1.409       .  A
C1017      C1018   1.398       .  A
C1017      F1024   1.358       .  S
C1018      C1019   1.402       .  A
C1018      H1023   1.084       .  S
C1019      C1020   1.410       .  A
C1020      F1021   1.358       .  S
C1025      C1026   1.405       .  A
C1025      C1030   1.394       .  A
C1025      H1032   1.085       .  S
C1026      C1027   1.404       .  A
C1027      C1028   1.401       .  A
C1027      F1034   1.357       .  S
C1028      C1029   1.408       .  A
C1028      H1033   1.084       .  S
C1029      C1030   1.406       .  A
C1030      F1031   1.358       .  S
C1035      C1036   1.401       .  A
C1035      C1040   1.398       .  A
C1035      H1042   1.084       .  S
C1036      C1037   1.409       .  A
C1037      C1038   1.398       .  A
C1037      F1044   1.358       .  S
C1038      C1039   1.402       .  A
C1038      H1043   1.084       .  S
C1039      C1040   1.411       .  A
C1040      F1041   1.358       .  S
C1045      C1046   1.403   1_655  A
C1045      C1050   1.398       .  A
C1045      H1052   1.084   1_655  S
C1046      C1047   1.407   1_455  A
C1047      C1048   1.400       .  A
C1047      F1054   1.358   1_655  S
C1048      C1049   1.406       .  A
C1048      H1053   1.085       .  S
C1049      C1050   1.407       .  A
C1050      F1051   1.357       .  S
C1055      C1056   1.402       .  A
C1055      C1060   1.389       .  A
C1055      H1062   1.084       .  S
C1056      C1057   1.409       .  A
C1057      C1058   1.404       .  A
C1057      F1064   1.357       .  S
C1058      C1059   1.405       .  A
C1058      H1063   1.083       .  S
C1059      C1060   1.405       .  A
C1060      F1061   1.358       .  S
C1065      C1066   1.402       .  A
C1065      C1070   1.398       .  A
C1065      H1072   1.084       .  S
C1066      C1067   1.409       .  A
C1067      C1068   1.400       .  A
C1067      F1074   1.358       .  S
C1068      C1069   1.403       .  A
C1068      H1073   1.084       .  S
C1069      C1070   1.409       .  A
C1070      F1071   1.358       .  S
C1075      C1076   1.402       .  A
C1075      C1080   1.400       .  A
C1075      H1082   1.085       .  S
C1076      C1077   1.408       .  A
C1077      C1078   1.396       .  A
C1077      F1084   1.358       .  S
C1078      C1079   1.403       .  A
C1078      H1083   1.084       .  S
C1079      C1080   1.410       .  A
C1080      F1081   1.357       .  S
C1085      C1086   1.403       .  A
C1085      C1090   1.397       .  A
C1085      H1092   1.083       .  S
C1086      C1087   1.405       .  A
C1087      C1088   1.398   1_565  A
C1087      F1094   1.357       .  S
C1088      C1089   1.404       .  A
C1088      H1093   1.084       .  S
C1089      C1090   1.406   1_545  A
C1090      F1091   1.358   1_565  S
C1095      C1096   1.402       .  A
C1095      C1100   1.399       .  A
C1095      H1102   1.084       .  S
C1096      C1097   1.410       .  A
C1097      C1098   1.401       .  A
C1097      F1104   1.357       .  S
C1098      C1099   1.401       .  A
C1098      H1103   1.084       .  S
C1099      C1100   1.409       .  A
C1100      F1101   1.358       .  S
C1105      C1106   1.401       .  A
C1105      C1110   1.400       .  A
C1105      H1112   1.084       .  S
C1106      C1107   1.405       .  A
C1107      C1108   1.393       .  A
C1107      F1114   1.358       .  S
C1108      C1109   1.403       .  A
C1108      H1113   1.084       .  S
C1109      C1110   1.410       .  A
C1110      F1111   1.357       .  S
C1115      C1116   1.402       .  A
C1115      C1120   1.398       .  A
C1115      H1122   1.084       .  S
C1116      C1117   1.410       .  A
C1117      C1118   1.399       .  A
C1117      F1124   1.358       .  S
C1118      C1119   1.403       .  A
C1118      H1123   1.084       .  S
C1119      C1120   1.409       .  A
C1120      F1121   1.357       .  S
C1125      C1126   1.401       .  A
C1125      C1130   1.399       .  A
C1125      H1132   1.084       .  S
C1126      C1127   1.408       .  A
C1127      C1128   1.398       .  A
C1127      F1134   1.357       .  S
C1128      C1129   1.402       .  A
C1128      H1133   1.084       .  S
C1129      C1130   1.409       .  A
C1130      F1131   1.358   1_554  S
C1135      C1136   1.401       .  A
C1135      C1140   1.397       .  A
C1135      H1142   1.084       .  S
C1136      C1137   1.408       .  A
C1137      C1138   1.396       .  A
C1137      F1144   1.358       .  S
C1138      C1139   1.401       .  A
C1138      H1143   1.084       .  S
C1139      C1140   1.409       .  A
C1140      F1141   1.358       .  S
C1145      C1146   1.403       .  A
C1145      C1150   1.401       .  A
C1145      H1152   1.084       .  S
C1146      C1147   1.409       .  A
C1147      C1148   1.399       .  A
C1147      F1154   1.358       .  S
C1148      C1149   1.403       .  A
C1148      H1153   1.084       .  S
C1149      C1150   1.410       .  A
C1150      F1151   1.358       .  S
C1155      C1156   1.404       .  A
C1155      C1160   1.399       .  A
C1155      H1162   1.083       .  S
C1156      C1157   1.410       .  A
C1157      C1158   1.396       .  A
C1157      F1164   1.358       .  S
C1158      C1159   1.401       .  A
C1158      H1163   1.085       .  S
C1159      C1160   1.408       .  A
C1160      F1161   1.358       .  S
C1165      C1166   1.402       .  A
C1165      C1170   1.394       .  A
C1165      H1172   1.085       .  S
C1166      C1167   1.403       .  A
C1167      C1168   1.402       .  A
C1167      F1174   1.358       .  S
C1168      C1169   1.409       .  A
C1168      H1173   1.083       .  S
C1169      C1170   1.406       .  A
C1170      F1171   1.357       .  S
C1175      C1176   1.402       .  A
C1175      C1180   1.396   1_655  A
C1175      H1182   1.084       .  S
C1176      C1177   1.405       .  A
C1177      C1178   1.395   1_655  A
C1177      F1184   1.358       .  S
C1178      C1179   1.402       .  A
C1178      H1183   1.084       .  S
C1179      C1180   1.405       .  A
C1180      F1181   1.358       .  S
C1185      C1186   1.402       .  A
C1185      C1190   1.398       .  A
C1185      H1192   1.084       .  S
C1186      C1187   1.410       .  A
C1187      C1188   1.397       .  A
C1187      F1194   1.358       .  S
C1188      C1189   1.400       .  A
C1188      H1193   1.084       .  S
C1189      C1190   1.408       .  A
C1190      F1191   1.358       .  S
C1195      C1196   1.406       .  A
C1195      C1200   1.399       .  A
C1195      H1202   1.085       .  S
C1196      C1197   1.405       .  A
C1197      C1198   1.398       .  A
C1197      F1204   1.358       .  S
C1198      C1199   1.405       .  A
C1198      H1203   1.084       .  S
C1199      C1200   1.403       .  A
C1200      F1201   1.357       .  S
C1205      C1206   1.400       .  A
C1205      C1210   1.397       .  A
C1205      H1212   1.084       .  S
C1206      C1207   1.407       .  A
C1207      C1208   1.393       .  A
C1207      F1214   1.358       .  S
C1208      C1209   1.402       .  A
C1208      H1213   1.085       .  S
C1209      C1210   1.410       .  A
C1210      F1211   1.357       .  S
C1215      C1216   1.406       .  A
C1215      C1220   1.396       .  A
C1215      H1222   1.085   1_554  S
C1216      C1217   1.404       .  A
C1217      C1218   1.398       .  A
C1217      F1224   1.357       .  S
C1218      C1219   1.404       .  A
C1218      H1223   1.085       .  S
C1219      C1220   1.402       .  A
C1220      F1221   1.358       .  S
C1225      C1226   1.402       .  A
C1225      C1230   1.396       .  A
C1225      H1232   1.083       .  S
C1226      C1227   1.410       .  A
C1227      C1228   1.400       .  A
C1227      F1234   1.358       .  S
C1228      C1229   1.402       .  A
C1228      H1233   1.083       .  S
C1229      C1230   1.408       .  A
C1230      F1231   1.358       .  S
C1235      C1236   1.401       .  A
C1235      C1240   1.400       .  A
C1235      H1242   1.084       .  S
C1236      C1237   1.407       .  A
C1237      C1238   1.397       .  A
C1237      F1244   1.358       .  S
C1238      C1239   1.403       .  A
C1238      H1243   1.084       .  S
C1239      C1240   1.411       .  A
C1240      F1241   1.357       .  S
C1245      C1246   1.407       .  A
C1245      C1250   1.399       .  A
C1245      H1252   1.084       .  S
C1246      C1247   1.404       .  A
C1247      C1248   1.399       .  A
C1247      F1254   1.358       .  S
C1248      C1249   1.407       .  A
C1248      H1253   1.084       .  S
C1249      C1250   1.404       .  A
C1250      F1251   1.357       .  S
C1255      C1256   1.404       .  A
C1255      C1260   1.393       .  A
C1255      H1262   1.085       .  S
C1256      C1257   1.403       .  A
C1257      C1258   1.400       .  A
C1257      F1264   1.357       .  S
C1258      C1259   1.408       .  A
C1258      H1263   1.083       .  S
C1259      C1260   1.406       .  A
C1260      F1261   1.358       .  S
C1265      C1266   1.404       .  A
C1265      C1270   1.396       .  A
C1265      H1272   1.085       .  S
C1266      C1267   1.403       .  A
C1267      C1268   1.403       .  A
C1267      F1274   1.358       .  S
C1268      C1269   1.410       .  A
C1268      H1273   1.083       .  S
C1269      C1270   1.406       .  A
C1270      F1271   1.357       .  S
C1275      C1276   1.402       .  A
C1275      C1280   1.398   1_565  A
C1275      H1282   1.083       .  S
C1276      C1277   1.409       .  A
C1277      C1278   1.398       .  A
C1277      F1284   1.357       .  S
C1278      C1279   1.401   1_565  A
C1278      H1283   1.083   1_565  S
C1279      C1280   1.407       .  A
C1280      F1281   1.358       .  S
C1285      C1286   1.406       .  A
C1285      C1290   1.399       .  A
C1285      H1292   1.085       .  S
C1286      C1287   1.405       .  A
C1287      C1288   1.398       .  A
C1287      F1294   1.357       .  S
C1288      C1289   1.405       .  A
C1288      H1293   1.084       .  S
C1289      C1290   1.406       .  A
C1290      F1291   1.358       .  S
C1295      C1296   1.408       .  A
C1295      C1300   1.400       .  A
C1295      H1302   1.083       .  S
C1296      C1297   1.406       .  A
C1297      C1298   1.395       .  A
C1297      F1304   1.358       .  S
C1298      C1299   1.405       .  A
C1298      H1303   1.084       .  S
C1299      C1300   1.403       .  A
C1300      F1301   1.357       .  S
C1305      C1306   1.403       .  A
C1305      C1310   1.394       .  A
C1305      H1312   1.086       .  S
C1306      C1307   1.404       .  A
C1307      C1308   1.401       .  A
C1307      F1314   1.357       .  S
C1308      C1309   1.408       .  A
C1308      H1313   1.083       .  S
C1309      C1310   1.406       .  A
C1310      F1311   1.357       .  S
C1315      C1316   1.406       .  A
C1315      C1320   1.400       .  A
C1315      H1322   1.084       .  S
C1316      C1317   1.406       .  A
C1317      C1318   1.399       .  A
C1317      F1324   1.358       .  S
C1318      C1319   1.406       .  A
C1318      H1323   1.084       .  S
C1319      C1320   1.405       .  A
C1320      F1321   1.357       .  S
C1325      C1326   1.399       .  A
C1325      C1330   1.398       .  A
C1325      H1332   1.084       .  S
C1326      C1327   1.405       .  A
C1327      C1328   1.395       .  A
C1327      F1334   1.359       .  S
C1328      C1329   1.403       .  A
C1328      H1333   1.084       .  S
C1329      C1330   1.411       .  A
C1330      F1331   1.357       .  S
C1335      C1336   1.403   1_655  A
C1335      C1340   1.399       .  A
C1335      H1342   1.084   1_655  S
C1336      C1337   1.404   1_455  A
C1337      C1338   1.396       .  A
C1337      F1344   1.358   1_655  S
C1338      C1339   1.404       .  A
C1338      H1343   1.084       .  S
C1339      C1340   1.407       .  A
C1340      F1341   1.357       .  S
C1345      C1346   1.407       .  A
C1345      C1350   1.401       .  A
C1345      H1352   1.085       .  S
C1346      C1347   1.404       .  A
C1347      C1348   1.398       .  A
C1347      F1354   1.357       .  S
C1348      C1349   1.406       .  A
C1348      H1353   1.084       .  S
C1349      C1350   1.406       .  A
C1350      F1351   1.358       .  S
C1355      C1356   1.406       .  A
C1355      C1360   1.402       .  A
C1355      H1362   1.084       .  S
C1356      C1357   1.406       .  A
C1357      C1358   1.399       .  A
C1357      F1364   1.358       .  S
C1358      C1359   1.406       .  A
C1358      H1363   1.084       .  S
C1359      C1360   1.406       .  A
C1360      F1361   1.357       .  S
C1365      C1366   1.407       .  A
C1365      C1370   1.399       .  A
C1365      H1372   1.082       .  S
C1366      C1367   1.406       .  A
C1367      C1368   1.393       .  A
C1367      F1374   1.358       .  S
C1368      C1369   1.403       .  A
C1368      H1373   1.085       .  S
C1369      C1370   1.403       .  A
C1370      F1371   1.357       .  S
C1375      C1376   1.402       .  A
C1375      C1380   1.403       .  A
C1375      H1382   1.085       .  S
C1376      C1377   1.403       .  A
C1377      C1378   1.389       .  A
C1377      F1384   1.358       .  S
C1378      C1379   1.401       .  A
C1378      H1383   1.084       .  S
C1379      C1380   1.412       .  A
C1380      F1381   1.358       .  S
C1385      C1386   1.405       .  A
C1385      C1390   1.401   1_545  A
C1385      H1392   1.084       .  S
C1386      C1387   1.405       .  A
C1387      C1388   1.395   1_545  A
C1387      F1394   1.357       .  S
C1388      C1389   1.402       .  A
C1388      H1393   1.085       .  S
C1389      C1390   1.407       .  A
C1390      F1391   1.358       .  S
C1395      C1396   1.407       .  A
C1395      C1400   1.399       .  A
C1395      H1402   1.084       .  S
C1396      C1397   1.405       .  A
C1397      C1398   1.399       .  A
C1397      F1404   1.357       .  S
C1398      C1399   1.406       .  A
C1398      H1403   1.085       .  S
C1399      C1400   1.404       .  A
C1400      F1401   1.357       .  S
C1405      C1406   1.401       .  A
C1405      C1410   1.391       .  A
C1405      H1412   1.084       .  S
C1406      C1407   1.410       .  A
C1407      C1408   1.400       .  A
C1407      F1414   1.357       .  S
C1408      C1409   1.401       .  A
C1408      H1413   1.084       .  S
C1409      C1410   1.406       .  A
C1410      F1411   1.358       .  S
C1415      C1416   1.403       .  A
C1415      C1420   1.398       .  A
C1415      H1422   1.084       .  S
C1416      C1417   1.409       .  A
C1417      C1418   1.399       .  A
C1417      F1424   1.357       .  S
C1418      C1419   1.401       .  A
C1418      H1423   1.084       .  S
C1419      C1420   1.408       .  A
C1420      F1421   1.358       .  S
C1425      C1426   1.408       .  A
C1425      C1430   1.403       .  A
C1425      H1432   1.083       .  S
C1426      C1427   1.406       .  A
C1427      C1428   1.393       .  A
C1427      F1434   1.358       .  S
C1428      C1429   1.404       .  A
C1428      H1433   1.085       .  S
C1429      C1430   1.405       .  A
C1430      F1431   1.357       .  S
C1435      C1436   1.402       .  A
C1435      C1440   1.401       .  A
C1435      H1442   1.083       .  S
C1436      C1437   1.409       .  A
C1437      C1438   1.394       .  A
C1437      F1444   1.358       .  S
C1438      C1439   1.401       .  A
C1438      H1443   1.084       .  S
C1439      C1440   1.411       .  A
C1440      F1441   1.357       .  S
C1445      C1446   1.403       .  A
C1445      C1450   1.400   1_655  A
C1445      H1452   1.084       .  S
C1446      C1447   1.410       .  A
C1447      C1448   1.397       .  A
C1447      F1454   1.357       .  S
C1448      C1449   1.399   1_655  A
C1448      H1453   1.084       .  S
C1449      C1450   1.408       .  A
C1450      F1451   1.358       .  S
C1455      C1456   1.405       .  A
C1455      C1460   1.396       .  A
C1455      H1462   1.084       .  S
C1456      C1457   1.404       .  A
C1457      C1458   1.400       .  A
C1457      F1464   1.357       .  S
C1458      C1459   1.408       .  A
C1458      H1463   1.084       .  S
C1459      C1460   1.403       .  A
C1460      F1461   1.357       .  S
C1465      C1466   1.401       .  A
C1465      C1470   1.400       .  A
C1465      H1472   1.084       .  S
C1466      C1467   1.407       .  A
C1467      C1468   1.396       .  A
C1467      F1474   1.358       .  S
C1468      C1469   1.403       .  A
C1468      H1473   1.084       .  S
C1469      C1470   1.411       .  A
C1470      F1471   1.357       .  S
C1475      C1476   1.403       .  A
C1475      C1480   1.401       .  A
C1475      H1482   1.084       .  S
C1476      C1477   1.410       .  A
C1477      C1478   1.399       .  A
C1477      F1484   1.357       .  S
C1478      C1479   1.402       .  A
C1478      H1483   1.084       .  S
C1479      C1480   1.410       .  A
C1480      F1481   1.358       .  S
C1485      C1486   1.403       .  A
C1485      C1490   1.403       .  A
C1485      H1492   1.083       .  S
C1486      C1487   1.407       .  A
C1487      C1488   1.393       .  A
C1487      F1494   1.358       .  S
C1488      C1489   1.402       .  A
C1488      H1493   1.085       .  S
C1489      C1490   1.411       .  A
C1490      F1491   1.357       .  S
C1495      C1496   1.400       .  A
C1495      C1500   1.400       .  A
C1495      H1502   1.085       .  S
C1496      C1497   1.407       .  A
C1497      C1498   1.396       .  A
C1497      F1504   1.358       .  S
C1498      C1499   1.403       .  A
C1498      H1503   1.084       .  S
C1499      C1500   1.412       .  A
C1500      F1501   1.357       .  S
C1505      C1506   1.406       .  A
C1505      C1510   1.401       .  A
C1505      H1512   1.084       .  S
C1506      C1507   1.403       .  A
C1507      C1508   1.397       .  A
C1507      F1514   1.357       .  S
C1508      C1509   1.405       .  A
C1508      H1513   1.084       .  S
C1509      C1510   1.406       .  A
C1510      F1511   1.358       .  S
C1515      C1516   1.401       .  A
C1515      C1520   1.398       .  A
C1515      H1522   1.084       .  S
C1516      C1517   1.410       .  A
C1517      C1518   1.400       .  A
C1517      F1524   1.358       .  S
C1518      C1519   1.402       .  A
C1518      H1523   1.084       .  S
C1519      C1520   1.409       .  A
C1520      F1521   1.358       .  S
C1525      C1526   1.400       .  A
C1525      C1530   1.399       .  A
C1525      H1532   1.083       .  S
C1526      C1527   1.405       .  A
C1527      C1528   1.395       .  A
C1527      F1534   1.358       .  S
C1528      C1529   1.403       .  A
C1528      H1533   1.084       .  S
C1529      C1530   1.411       .  A
C1530      F1531   1.357       .  S
C1535      C1536   1.408       .  A
C1535      C1540   1.400       .  A
C1535      H1542   1.083       .  S
C1536      C1537   1.406       .  A
C1537      C1538   1.396       .  A
C1537      F1544   1.358       .  S
C1538      C1539   1.404       .  A
C1538      H1543   1.084       .  S
C1539      C1540   1.403       .  A
C1540      F1541   1.357       .  S
C1545      C1546   1.402       .  A
C1545      C1550   1.398       .  A
C1545      H1552   1.084       .  S
C1546      C1547   1.409       .  A
C1547      C1548   1.399       .  A
C1547      F1554   1.358       .  S
C1548      C1549   1.402       .  A
C1548      H1553   1.084       .  S
C1549      C1550   1.408       .  A
C1550      F1551   1.358       .  S
C1555      C1556   1.408       .  A
C1555      C1560   1.402       .  A
C1555      H1562   1.083       .  S
C1556      C1557   1.404       .  A
C1557      C1558   1.394       .  A
C1557      F1564   1.358       .  S
C1558      C1559   1.406       .  A
C1558      H1563   1.085       .  S
C1559      C1560   1.404       .  A
C1560      F1561   1.357       .  S
C1565      C1566   1.402       .  A
C1565      C1570   1.400       .  A
C1565      H1572   1.084       .  S
C1566      C1567   1.409       .  A
C1567      C1568   1.397       .  A
C1567      F1574   1.358       .  S
C1568      C1569   1.403       .  A
C1568      H1573   1.085       .  S
C1569      C1570   1.410       .  A
C1570      F1571   1.357       .  S
C1575      C1576   1.401       .  A
C1575      C1580   1.400   1_565  A
C1575      H1582   1.084       .  S
C1576      C1577   1.407       .  A
C1577      C1578   1.397       .  A
C1577      F1584   1.358       .  S
C1578      C1579   1.402   1_565  A
C1578      H1583   1.084   1_565  S
C1579      C1580   1.410       .  A
C1580      F1581   1.358       .  S
