geometry optimzed in LAMMPS
_audit_creation_date              2020-11-30 
_audit_creation_method            'lammps2cif' 
_symmetry_space_group_name_H-M    'P1' 
_symmetry_Int_Tables_number       1 
_symmetry_cell_setting            triclinic 
loop_ 
_symmetry_equiv_pos_as_xyz 
  x,y,z 
_cell_length_a                    31.481182335958042 
_cell_length_b                    31.851951034969908 
_cell_length_c                    33.73419023135872 
_cell_angle_alpha                 89.933256689258 
_cell_angle_beta                  89.67031993442598 
_cell_angle_gamma                 89.93519429280605 
loop_ 
_atom_site_label 
_atom_site_type_symbol 
_atom_site_fract_x 
_atom_site_fract_y 
_atom_site_fract_z 
_atom_site_charge 
O1          O  0.70510712  0.95392366  0.48911464    -0.57710
C2          C  0.82699085  0.93975303  0.50490230     0.74920
O3          O  0.77343623  0.83572133  0.54551707    -0.58870
C4          C  0.67005712  0.93452827  0.49143499     0.74890
C5          C  0.74634049  0.84904100  0.42204407     0.77290
Cd6        Cd  0.75013399  0.89072319  0.49764888     1.37460
O7          O  0.79064619  0.95505550  0.51213086    -0.57700
O8          O  0.74939677  0.88834721  0.42601467    -0.56510
C9          C  0.74795465  0.84698169  0.57263462     0.77250
O10         O  0.74680207  0.82760554  0.45366371    -0.58890
O11         O  0.82761874  0.90184526  0.49393749    -0.57340
O12         O  0.67255670  0.89521311  0.49679227    -0.57330
O13         O  0.72367303  0.87736550  0.56459917    -0.56500
C14         C  0.74603561  0.80476505  0.73735365     0.00670
C15         C  0.75403477  0.77124450  0.76136576     0.00670
C16         C  0.74349567  0.77230842  0.23495051     0.00670
C17         C  0.75633332  0.80375877  0.25931119     0.00670
O18         O  0.70619994  0.61840033  0.98637126    -0.57710
C19         C  0.82896133  0.63219665  0.00407553     0.74920
O20         O  0.75193149  0.74494777  0.95598247    -0.58870
C21         C  0.67171804  0.63788297  0.99283383     0.74890
C22         C  0.75161501  0.72440299  0.07241869     0.77290
Cd23       Cd  0.75169384  0.68024119  0.99796520     1.37470
O24         O  0.79428674  0.61641654  0.01591949    -0.57700
O25         O  0.72683645  0.69419290  0.06538214    -0.56510
C26         C  0.74809748  0.72513355  0.92370671     0.77250
O27         O  0.77671177  0.73499160  0.04479524    -0.58890
O28         O  0.82645579  0.66856409  0.98928486    -0.57340
O29         O  0.67490787  0.67646140  0.00142832    -0.57330
O30         O  0.74671710  0.68557630  0.92607372    -0.56500
C31         C  0.75654528  0.27088303  0.24104500     0.00670
C32         C  0.74375860  0.30309975  0.26477838     0.00670
C33         C  0.74907983  0.30598687  0.73792680     0.00670
C34         C  0.73330141  0.27636149  0.76335392     0.00670
O35         O  0.70491850  0.46213520  0.51165806    -0.57710
C36         C  0.82947341  0.44312384  0.49496376     0.74920
O37         O  0.73003270  0.33865675  0.54492802    -0.58870
C38         C  0.67025544  0.44222070  0.50848093     0.74890
C39         C  0.75110625  0.35433891  0.42635589     0.77290
Cd40       Cd  0.75005484  0.39835997  0.50106928     1.37460
O41         O  0.79475177  0.46261426  0.49009041    -0.57700
O42         O  0.73104662  0.38832668  0.43128488    -0.56510
C43         C  0.74827842  0.35307888  0.57527406     0.77250
O44         O  0.77090896  0.34010305  0.45596046    -0.58890
O45         O  0.82638607  0.40418294  0.50173750    -0.57340
O46         O  0.67354356  0.40313182  0.50273503    -0.57330
O47         O  0.76756816  0.38760356  0.57119733    -0.56500
O48         O  0.70979473  0.12109673  0.01099341    -0.57710
C49         C  0.83284707  0.14378825  0.99708335     0.74920
O50         O  0.75190946  0.24684057  0.95548470    -0.58870
C51         C  0.67346537  0.13779547  0.00788773     0.74890
C52         C  0.74696131  0.22591277  0.07758136     0.77290
Cd53       Cd  0.75112757  0.18520464  0.00152657     1.37470
O54         O  0.79864709  0.12437020  0.99046714    -0.57700
O55         O  0.74885870  0.18655316  0.07308391    -0.56510
C56         C  0.75172717  0.22430822  0.92454521     0.77250
O57         O  0.74859237  0.24780495  0.04621122    -0.58890
O58         O  0.82885040  0.18208887  0.00644125    -0.57340
O59         O  0.67298147  0.17691421  0.00126808    -0.57330
O60         O  0.74875281  0.18520838  0.92994129    -0.56500
O61         O  0.82653536  0.49593005  0.75921386    -0.57710
C62         C  0.84972367  0.61740244  0.74963031     0.74920
O63         O  0.95437943  0.53572247  0.79622909    -0.58870
C64         C  0.84272661  0.46027247  0.75272264     0.74890
C65         C  0.93539693  0.54199377  0.67625365     0.77290
Cd66       Cd  0.89173361  0.53673973  0.75144811     1.37460
O67         O  0.83087858  0.58402272  0.73966717    -0.57700
O68         O  0.89553964  0.54394641  0.67998815    -0.56510
C69         C  0.93252374  0.53106948  0.82758628     0.77250
O70         O  0.95605881  0.53529078  0.70775780    -0.58890
O71         O  0.88756069  0.61292773  0.76128434    -0.57340
O72         O  0.88217435  0.45983917  0.74509867    -0.57330
O73         O  0.89270937  0.53021370  0.82326970    -0.56500
O74         O  0.17611997  0.58178874  0.25064752    -0.57710
C75         C  0.15466420  0.46246898  0.26471990     0.74920
O76         O  0.04955661  0.52165411  0.29847148    -0.58870
C77         C  0.15853359  0.61705918  0.24501300     0.74890
C78         C  0.07018259  0.53564898  0.17681398     0.77290
Cd79       Cd  0.10965873  0.54073459  0.25383708     1.37470
O80         O  0.17391693  0.49726920  0.26705501    -0.57700
O81         O  0.10545621  0.51853208  0.18430332    -0.56510
C82         C  0.06157699  0.54416857  0.32710542     0.77250
O83         O  0.05266408  0.55544996  0.20502918    -0.58890
O84         O  0.11513648  0.46468133  0.25857381    -0.57340
O85         O  0.11838591  0.61654254  0.24302551    -0.57330
O86         O  0.09442200  0.56608583  0.32123275    -0.56500
C87         C  0.98941137  0.54830733  0.98798676     0.00670
C88         C  0.02060690  0.53237427  0.01191258     0.00670
C89         C  0.99209003  0.52370369  0.51752146     0.00670
C90         C  0.02326980  0.53589831  0.49160958     0.00670
C91         C  0.51319004  0.55071284  0.01302539     0.00670
C92         C  0.48164509  0.53940861  0.98793575     0.00670
O93         O  0.33031100  0.57772806  0.76187729    -0.57710
C94         C  0.35134638  0.45831215  0.74869113     0.74920
O95         O  0.45609610  0.55000105  0.70278185    -0.58870
C96         C  0.34535239  0.61333164  0.75288427     0.74890
C97         C  0.44067967  0.54115035  0.82418756     0.77290
Cd98       Cd  0.39567992  0.53760405  0.74997286     1.37470
O99         O  0.33272358  0.49271227  0.74152463    -0.57700
O100        O  0.40498152  0.55826658  0.81888537    -0.56510
C101        C  0.43661129  0.53514527  0.67319038     0.77250
O102        O  0.45650680  0.52198177  0.79473526    -0.58890
O103        O  0.38981082  0.46110723  0.75894671    -0.57340
O104        O  0.38389596  0.61384662  0.74179069    -0.57330
O105        O  0.39893022  0.52328675  0.67944565    -0.56500
C106        C  0.50917366  0.52418781  0.48321952     0.00670
C107        C  0.47754637  0.53803546  0.50789399     0.00670
O108        O  0.67285280  0.58006542  0.25651666    -0.57710
C109        C  0.65540672  0.45922035  0.24362544     0.74920
O110        O  0.54642598  0.53563591  0.29252554    -0.58870
C111        C  0.65575091  0.61524123  0.24995084     0.74890
C112        C  0.56437809  0.53370164  0.17293127     0.77290
Cd113      Cd  0.60913659  0.53732675  0.24722396     1.37470
O114        O  0.67209952  0.49396917  0.23446489    -0.57700
O115        O  0.60415144  0.52924118  0.17565808    -0.56510
C116        C  0.56804303  0.54086897  0.32368632     0.77250
O117        O  0.54464654  0.54099595  0.20499587    -0.58890
O118        O  0.61698124  0.46069633  0.25493297    -0.57340
O119        O  0.61673430  0.61437592  0.24105485    -0.57330
O120        O  0.60782444  0.54242888  0.31905350    -0.56500
C121        C  0.26075528  0.30227992  0.75981919     0.00670
C122        C  0.24560355  0.27174942  0.73533978     0.00670
O123        O  0.29208352  0.11752961  0.50876962    -0.57710
C124        C  0.17082469  0.13554595  0.49858671     0.74920
O125        O  0.23169647  0.24023448  0.54392115    -0.58870
C126        C  0.32776916  0.13379090  0.50051809     0.74890
C127        C  0.24663921  0.22503095  0.42341011     0.77290
Cd128      Cd  0.24997993  0.18148620  0.49843571     1.37460
O129        O  0.20531350  0.11866264  0.48758782    -0.57700
O130        O  0.23259794  0.18832284  0.42829869    -0.56510
C131        C  0.25341045  0.22639685  0.57259852     0.77250
O132        O  0.26371109  0.24193750  0.45329378    -0.58890
O133        O  0.17373566  0.17280360  0.51133209    -0.57340
O134        O  0.32718528  0.17186011  0.48974727    -0.57330
O135        O  0.27273752  0.19219475  0.56688488    -0.56500
C136        C  0.24210799  0.30644228  0.23786424     0.00670
C137        C  0.25894440  0.27654312  0.26213149     0.00670
O138        O  0.29562339  0.45605790  0.00335799    -0.57710
C139        C  0.17570230  0.44192813  0.98968235     0.74920
O140        O  0.26866742  0.33260310  0.95215129    -0.58870
C141        C  0.33114371  0.43839143  0.99786483     0.74890
C142        C  0.25104642  0.35692054  0.07448770     0.77290
Cd143      Cd  0.25181329  0.39316030  0.99604458     1.37470
O144        O  0.21189577  0.45700395  0.98156237    -0.57700
O145        O  0.25329321  0.39575444  0.06760130    -0.56510
C146        C  0.24880595  0.34725178  0.92264527     0.77250
O147        O  0.24597024  0.33355994  0.04449577    -0.58890
O148        O  0.17479118  0.40381141  0.00062174    -0.57340
O149        O  0.32971756  0.39975193  0.98952638    -0.57330
O150        O  0.23084767  0.38229852  0.92747788    -0.56500
O151        O  0.67204883  0.99423751  0.76248348    -0.57710
C152        C  0.65013225  0.11717743  0.74136554     0.74920
O153        O  0.54510818  0.04104362  0.70374650    -0.58870
C154        C  0.65429230  0.95921995  0.75620350     0.74890
C155        C  0.56404550  0.03903320  0.82297742     0.77290
Cd156      Cd  0.60817100  0.03716682  0.74783764     1.37460
O157        O  0.67096725  0.08332647  0.73745691    -0.57700
O158        O  0.59777789  0.05940682  0.81640612    -0.56510
C159        C  0.56682347  0.04097492  0.67201381     0.77250
O160        O  0.54953823  0.01790225  0.79435055    -0.58890
O161        O  0.61071920  0.11327939  0.74818897    -0.57340
O162        O  0.61599769  0.96086874  0.74542073    -0.57330
O163        O  0.60653341  0.03730049  0.67583182    -0.56500
O164        O  0.32874848  0.08312123  0.24213473    -0.57710
C165        C  0.34878582  0.96214726  0.25336417     0.74920
O166        O  0.45665160  0.03584968  0.20482239    -0.58870
C167        C  0.34571747  0.11846756  0.24809145     0.74890
C168        C  0.43770822  0.03415357  0.32488972     0.77290
Cd169      Cd  0.39359786  0.04094824  0.25022734     1.37470
O170        O  0.33175242  0.99586868  0.26533000    -0.57700
O171        O  0.40106301  0.01951372  0.31920668    -0.56510
C172        C  0.43551819  0.04331620  0.17372206     0.77250
O173        O  0.45447868  0.05367438  0.29603540    -0.58890
O174        O  0.38577841  0.96561500  0.23865752    -0.57340
O175        O  0.38483224  0.11785504  0.25654755    -0.57330
O176        O  0.39593772  0.04757632  0.17840163    -0.56500
C177        C  0.52306662  0.03809748  0.98808791     0.00670
C178        C  0.49001289  0.02794613  0.01267731     0.00670
C179        C  0.48038440  0.03521185  0.48770819     0.00670
C180        C  0.51085840  0.02147990  0.51309845     0.00670
C181        C  0.24425298  0.77542799  0.26128294     0.00670
C182        C  0.25722765  0.80736047  0.23728510     0.00670
O183        O  0.21045349  0.62045225  0.50823609    -0.57710
C184        C  0.32472985  0.63668616  0.49178683     0.74920
O185        O  0.27427202  0.74101777  0.45189644    -0.58870
C186        C  0.17372539  0.63656409  0.51099789     0.74890
C187        C  0.24886115  0.73129936  0.57420593     0.77290
Cd188      Cd  0.24901420  0.68714674  0.50001602     1.37470
O189        O  0.28788847  0.62166293  0.48715394    -0.57700
O190        O  0.27356290  0.70091100  0.56722516    -0.56510
C191        C  0.24795797  0.73134144  0.42530591     0.77250
O192        O  0.22480114  0.74269994  0.54633480    -0.58890
O193        O  0.32634642  0.67546916  0.49985157    -0.57340
O194        O  0.17217877  0.67617887  0.50936066    -0.57330
O195        O  0.22207130  0.70241302  0.43369751    -0.56500
C196        C  0.24994806  0.76740505  0.73871577     0.00670
C197        C  0.23449161  0.79640227  0.76478874     0.00670
O198        O  0.21196299  0.95852426  0.00815672    -0.57710
C199        C  0.33371672  0.93511929  0.99758293     0.74920
O200        O  0.25167086  0.83141071  0.04302723    -0.58870
C201        C  0.17544985  0.94355680  0.00217497     0.74890
C202        C  0.25570151  0.85153119  0.92355192     0.77290
Cd203      Cd  0.25213721  0.89399471  0.99854743     1.37470
O204        O  0.30033141  0.95399255  0.98685994    -0.57700
O205        O  0.25849083  0.89084884  0.92728118    -0.56510
C206        C  0.24701557  0.85296737  0.07427564     0.77250
O207        O  0.24912061  0.83088749  0.95510389    -0.58890
O208        O  0.32885785  0.89748917  0.00865049    -0.57340
O209        O  0.17427324  0.90490462  0.99339815    -0.57330
O210        O  0.24566240  0.89234516  0.06979126    -0.56500
O211        O  0.17117226  0.99082844  0.73830378    -0.57710
C212        C  0.15439265  0.11620359  0.75106561     0.74920
O213        O  0.04587411  0.04257315  0.70621520    -0.58870
C214        C  0.15273033  0.95757146  0.74946156     0.74890
C215        C  0.06711665  0.04511147  0.82613049     0.77290
Cd216      Cd  0.10923776  0.03762799  0.74993865     1.37470
O217        O  0.17275518  0.08163980  0.75824574    -0.57700
O218        O  0.10602238  0.05321824  0.82076053    -0.56510
C219        C  0.06591658  0.03348261  0.67468359     0.77250
O220        O  0.04703341  0.03223328  0.79605023    -0.58890
O221        O  0.11569456  0.11388828  0.74144840    -0.57340
O222        O  0.11509792  0.96212202  0.76222762    -0.57330
O223        O  0.10537299  0.02762685  0.67823934    -0.56500
O224        O  0.83056311  0.08293826  0.26619032    -0.57710
C225        C  0.84790950  0.95847410  0.24662058     0.74920
O226        O  0.95625435  0.03947494  0.20707258    -0.58870
C227        C  0.84871497  0.11685294  0.25635267     0.74890
C228        C  0.93401734  0.04284236  0.32730925     0.77290
Cd229      Cd  0.89234472  0.03753469  0.25154057     1.37460
O230        O  0.83031324  0.99255294  0.23667544    -0.57700
O231        O  0.89517228  0.05110198  0.32239550    -0.56510
C232        C  0.93489679  0.03601315  0.17547984     0.77250
O233        O  0.95436665  0.03004100  0.29709846    -0.58890
O234        O  0.88508338  0.96162149  0.26040030    -0.57340
O235        O  0.88627688  0.11343145  0.24303023    -0.57330
O236        O  0.89503406  0.03527102  0.17967332    -0.56500
C237        C  0.99327649  0.05854478  0.01636451     0.00670
C238        C  0.02353748  0.04424322  0.99039114     0.00670
C239        C  0.97651462  0.04204329  0.49120689     0.00670
C240        C  0.00866557  0.05404355  0.51561766     0.00670
C241        C  0.99403533  0.05400088  0.12896368    -0.20200
C242        C  0.95494830  0.03388995  0.13556406    -0.06770
C243        C  0.93511461  0.01321261  0.10348065     0.14100
C244        C  0.95221380  0.01750244  0.06529853    -0.20250
C245        C  0.98850163  0.04192397  0.05779737    -0.06770
C246        C  0.01141725  0.05782434  0.09054722     0.14090
C247        C  0.05367267  0.07930840  0.08578933    -0.23600
H248        H  0.01038667  0.06809984  0.15378916     0.15380
H249        H  0.93537176  0.00385338  0.04056335     0.15410
C250        C  0.89563343  0.98689437  0.10879329    -0.23550
H251        H  0.06214461  0.09742528  0.11271586     0.05620
H252        H  0.05379553  0.10130346  0.06037760     0.08850
H253        H  0.07858140  0.05516677  0.08151775     0.08850
H254        H  0.86822906  0.00698465  0.11714898     0.08830
H255        H  0.90101960  0.96272722  0.13198827     0.08830
H256        H  0.88694453  0.97033507  0.08103444     0.05600
C257        C  0.96009397  0.08310593  0.43009795    -0.20200
C258        C  0.97879064  0.04743106  0.44712472    -0.06770
C259        C  0.98981443  0.01333897  0.42205939     0.14100
C260        C  0.97741494  0.01386799  0.38212363    -0.20250
C261        C  0.95371286  0.04728953  0.36675848    -0.06770
C262        C  0.94648703  0.08313453  0.39055505     0.14090
C263        C  0.92382704  0.12131220  0.37465276    -0.23600
H264        H  0.95324697  0.11011413  0.44822763     0.15380
H265        H  0.98405527  0.98683159  0.36359066     0.15410
C266        C  0.01343359  0.97528758  0.43662870    -0.23550
H267        H  0.92301858  0.14723689  0.39663959     0.05620
H268        H  0.89045806  0.11348571  0.36733416     0.08850
H269        H  0.94042854  0.13292183  0.34766809     0.08850
H270        H  0.02340226  0.97823689  0.46783997     0.08830
H271        H  0.04263375  0.97080118  0.41849690     0.08830
H272        H  0.99303538  0.94704912  0.43378857     0.05600
C273        C  0.06414944  0.08168751  0.89078315    -0.20200
C274        C  0.04729832  0.05072540  0.86586389    -0.06770
C275        C  0.01441840  0.02473240  0.88058263     0.14100
C276        C  0.00293301  0.02731111  0.92089763    -0.20250
C277        C  0.02351920  0.05491172  0.94699987    -0.06770
C278        C  0.05213605  0.08465522  0.93075186     0.14090
C279        C  0.07091980  0.11982020  0.95450631    -0.23600
H280        H  0.08781010  0.10326687  0.87922958     0.15380
H281        H  0.97944452  0.00584390  0.93234135     0.15410
C282        C  0.99321406  0.99240710  0.85485971    -0.23550
H283        H  0.06212665  0.15035151  0.94090755     0.05620
H284        H  0.10608801  0.11705462  0.95469758     0.08850
H285        H  0.05913405  0.11990626  0.98532392     0.08850
H286        H  0.01726712  0.97005833  0.84312794     0.08830
H287        H  0.97682546  0.00817518  0.82987603     0.08830
H288        H  0.96907194  0.97404893  0.87159859     0.05600
C289        C  0.00999100  0.05768018  0.62830599    -0.20200
C290        C  0.04486816  0.03140445  0.63548680    -0.06770
C291        C  0.05966061  0.00499063  0.60462680     0.14100
C292        C  0.04223494  0.00907409  0.56663187    -0.20250
C293        C  0.01175839  0.03996176  0.55801888    -0.06770
C294        C  0.99305698  0.06219266  0.59004375     0.14090
C295        C  0.95502691  0.09010496  0.58487025    -0.23600
H296        H  0.99713062  0.07631445  0.65241751     0.15380
H297        H  0.05452566  0.98969552  0.54288821     0.15410
C298        C  0.09401139  0.97269327  0.61115295    -0.23550
H299        H  0.94466023  0.10435763  0.61336421     0.05620
H300        H  0.92813877  0.07123614  0.57380434     0.08850
H301        H  0.96210170  0.11609324  0.56442630     0.08850
H302        H  0.08493090  0.95166757  0.63606839     0.08830
H303        H  0.12462056  0.98832767  0.61774747     0.08830
H304        H  0.09917323  0.95288324  0.58447026     0.05600
C305        C  0.09936731  0.03663057  0.00820219    -0.20200
C306        C  0.05994140  0.01714655  0.00286428    -0.06770
C307        C  0.05838630  0.97277224  0.00168013     0.14100
C308        C  0.09651932  0.94971814  0.00241338    -0.20250
C309        C  0.13626328  0.96965857  0.00494137    -0.06770
C310        C  0.13736211  0.01387601  0.00961223     0.14090
C311        C  0.17811126  0.03806374  0.01509511    -0.23600
H312        H  0.10079196  0.07024628  0.01087917     0.15380
H313        H  0.09521197  0.91580974  0.00035222     0.15410
C314        C  0.01701767  0.94921653  0.99986269    -0.23550
H315        H  0.17237021  0.07230773  0.01836198     0.05620
H316        H  0.19913874  0.03376751  0.98888652     0.08850
H317        H  0.19436890  0.02726019  0.04239470     0.08850
H318        H  0.99973055  0.95672322  0.97246009     0.08830
H319        H  0.99714961  0.95715224  0.02594307     0.08830
H320        H  0.02205886  0.91470432  0.00021722     0.05600
C321        C  0.23027280  0.86625123  0.73142534    -0.20200
C322        C  0.20934385  0.83377070  0.75180432    -0.06770
C323        C  0.16864005  0.84165432  0.76810692     0.14100
C324        C  0.15145912  0.88204192  0.76638427    -0.20250
C325        C  0.17323628  0.91536647  0.74820402    -0.06770
C326        C  0.21289232  0.90698684  0.72943255     0.14090
C327        C  0.23771778  0.94056505  0.70802502    -0.23600
H328        H  0.26168386  0.86037059  0.71932047     0.15380
H329        H  0.12065790  0.88743160  0.77998147     0.15410
C330        C  0.14210928  0.80813248  0.78752326    -0.23550
H331        H  0.26738979  0.92795326  0.69458568     0.05620
H332        H  0.24689366  0.96566080  0.72909579     0.08850
H333        H  0.21826951  0.95399106  0.68375031     0.08850
H334        H  0.15540536  0.77652348  0.78274332     0.08830
H335        H  0.10990603  0.80796788  0.77425487     0.08830
H336        H  0.13921320  0.81444602  0.81978820     0.05600
C337        C  0.27656223  0.83418527  0.81420196    -0.20200
C338        C  0.25005206  0.79978333  0.80640952    -0.06770
C339        C  0.23218911  0.77753097  0.83882222     0.14100
C340        C  0.23683546  0.79367178  0.87732979    -0.20250
C341        C  0.25873851  0.83136070  0.88412381    -0.06770
C342        C  0.28126466  0.85026490  0.85240462     0.14090
C343        C  0.30977989  0.88784951  0.85803863    -0.23600
H344        H  0.29108638  0.85090175  0.78965577     0.15380
H345        H  0.22105742  0.77797138  0.90184662     0.15410
C346        C  0.20696258  0.73781579  0.83423492    -0.23550
H347        H  0.32777320  0.89556922  0.83055668     0.05620
H348        H  0.33325637  0.88122032  0.88168550     0.08850
H349        H  0.29071960  0.91597252  0.86584909     0.08850
H350        H  0.20375211  0.72822234  0.80301489     0.08830
H351        H  0.17461251  0.74221210  0.84685430     0.08830
H352        H  0.22294328  0.71195382  0.85046258     0.05600
C353        C  0.20851718  0.74958513  0.63468899    -0.20200
C354        C  0.24702729  0.75069229  0.61367226    -0.06770
C355        C  0.28387424  0.76574317  0.63231465     0.14100
C356        C  0.28196966  0.77657316  0.67246346    -0.20250
C357        C  0.24465756  0.77103112  0.69491151    -0.06770
C358        C  0.20685177  0.75922021  0.67531889     0.14090
C359        C  0.16503193  0.75540554  0.69683255    -0.23600
H360        H  0.18019219  0.73859038  0.61983421     0.15380
H361        H  0.31070088  0.78656478  0.68700440     0.15410
C362        C  0.32545569  0.76949397  0.61020560    -0.23550
H363        H  0.13985595  0.74259614  0.67736338     0.05620
H364        H  0.15441425  0.78687495  0.70650894     0.08850
H365        H  0.16773064  0.73434601  0.72279437     0.08850
H366        H  0.32132969  0.79012318  0.58395226     0.08830
H367        H  0.33648214  0.73807531  0.60036874     0.08830
H368        H  0.35070467  0.78320879  0.62904437     0.05600
C369        C  0.21166103  0.77719430  0.32780806    -0.20200
C370        C  0.24936717  0.77598402  0.30534974    -0.06770
C371        C  0.28790569  0.76569618  0.32466353     0.14100
C372        C  0.28680471  0.75390198  0.36488564    -0.20250
C373        C  0.24828464  0.75126966  0.38583951    -0.06770
C374        C  0.21042876  0.76434511  0.36746529     0.14090
C375        C  0.16846621  0.76424215  0.38928874    -0.23600
H376        H  0.18224780  0.78554131  0.31363462     0.15380
H377        H  0.31587972  0.74444564  0.37946889     0.15410
C378        C  0.33009478  0.76579987  0.30340761    -0.23550
H379        H  0.14254687  0.77758370  0.37094556     0.05620
H380        H  0.17097319  0.78342969  0.41662934     0.08850
H381        H  0.15927723  0.73167533  0.39721943     0.08850
H382        H  0.33915398  0.79839660  0.29596740     0.08830
H383        H  0.32892899  0.74665955  0.27612373     0.08830
H384        H  0.35578068  0.75287251  0.32228276     0.05600
C385        C  0.22114060  0.85838579  0.14288276    -0.20200
C386        C  0.24286071  0.83448370  0.11441385    -0.06770
C387        C  0.26157742  0.79589276  0.12588385     0.14100
C388        C  0.26127560  0.78439530  0.16623350    -0.20250
C389        C  0.24371230  0.81110546  0.19511111    -0.06770
C390        C  0.22074239  0.84695100  0.18275150     0.14090
C391        C  0.19530360  0.87395232  0.21084060    -0.23600
H392        H  0.20486192  0.88692921  0.13412636     0.15380
H393        H  0.27761364  0.75615519  0.17552311     0.15410
C394        C  0.28426876  0.76816675  0.09648743    -0.23550
H395        H  0.16228215  0.87698351  0.19978379     0.05620
H396        H  0.20971621  0.90568477  0.21268661     0.08850
H397        H  0.19302231  0.86022510  0.24088776     0.08850
H398        H  0.31056734  0.78584320  0.08212074     0.08830
H399        H  0.26161823  0.75720879  0.07364250     0.08830
H400        H  0.29812445  0.73999042  0.11093303     0.05600
C401        C  0.44918566  0.96257949  0.01822598    -0.20200
C402        C  0.45294318  0.00211086  0.00016894    -0.06770
C403        C  0.41800895  0.01833197  0.97881874     0.14100
C404        C  0.37989977  0.99528849  0.97794075    -0.20250
C405        C  0.37579712  0.95633296  0.99742207    -0.06770
C406        C  0.41153729  0.93941832  0.01713989     0.14090
C407        C  0.41038223  0.89788884  0.03871585    -0.23600
H408        H  0.47566548  0.95014817  0.03464704     0.15380
H409        H  0.35296475  0.00804113  0.96208724     0.15410
C410        C  0.42007246  0.05964920  0.95705947    -0.23550
H411        H  0.44113963  0.89051759  0.05313245     0.05620
H412        H  0.40372003  0.87215012  0.01749948     0.08850
H413        H  0.38571762  0.89867407  0.06236881     0.08850
H414        H  0.44036481  0.05631010  0.93037556     0.08830
H415        H  0.43280887  0.08487585  0.97609594     0.08830
H416        H  0.38822156  0.06973000  0.94671505     0.05600
C417        C  0.34487420  0.88760293  0.23358797    -0.20200
C418        C  0.32704947  0.92069772  0.25545118    -0.06770
C419        C  0.28989444  0.91282680  0.27843909     0.14100
C420        C  0.27003601  0.87327552  0.27610720    -0.20250
C421        C  0.28572408  0.84195316  0.25073273    -0.06770
C422        C  0.32520607  0.84844020  0.23143804     0.14090
C423        C  0.34792713  0.81443472  0.20865357    -0.23600
H424        H  0.37425524  0.89231693  0.21727642     0.15380
H425        H  0.24064209  0.86780540  0.29211986     0.15410
C426        C  0.27040617  0.94575685  0.30493273    -0.23550
H427        H  0.34915895  0.82271540  0.17668224     0.05620
H428        H  0.33275107  0.78338038  0.21236612     0.08850
H429        H  0.38087032  0.81123613  0.21986930     0.08850
H430        H  0.25911392  0.97265561  0.28689207     0.08830
H431        H  0.29419081  0.95664003  0.32680700     0.08830
H432        H  0.24262798  0.93338229  0.32168871     0.05600
C433        C  0.49131987  0.02149407  0.12511606    -0.20200
C434        C  0.45544963  0.04616276  0.13379640    -0.06770
C435        C  0.43843007  0.07208642  0.10366897     0.14100
C436        C  0.45494881  0.06936040  0.06512161    -0.20250
C437        C  0.48753226  0.04108720  0.05530074    -0.06770
C438        C  0.50769832  0.01867185  0.08624133     0.14090
C439        C  0.54601915  0.99148554  0.07876190    -0.23600
H440        H  0.50548997  0.00290215  0.14850491     0.15380
H441        H  0.44011870  0.08742298  0.04186422     0.15410
C442        C  0.40247533  0.10242071  0.11147816    -0.23550
H443        H  0.55588470  0.97443288  0.10593548     0.05620
H444        H  0.57303920  0.01148870  0.06949404     0.08850
H445        H  0.53967806  0.96785206  0.05557715     0.08850
H446        H  0.41083581  0.12355260  0.13639268     0.08830
H447        H  0.37286753  0.08508539  0.11861512     0.08830
H448        H  0.39575975  0.12235947  0.08520043     0.05600
C449        C  0.47939989  0.06491901  0.37964214    -0.20200
C450        C  0.45857343  0.02995639  0.36387343    -0.06770
C451        C  0.45544496  0.99284108  0.38690647     0.14100
C452        C  0.46962088  0.99313987  0.42631451    -0.20250
C453        C  0.48429207  0.03021669  0.44382243    -0.06770
C454        C  0.49226175  0.06553267  0.41935077     0.14090
C455        C  0.51328131  0.10475591  0.43446039    -0.23600
H456        H  0.48335403  0.09290464  0.36166590     0.15380
H457        H  0.46616181  0.96518135  0.44423434     0.15410
C458        C  0.43652915  0.95306880  0.37047769    -0.23550
H459        H  0.49065502  0.13147175  0.43302835     0.05620
H460        H  0.54143521  0.11203684  0.41571224     0.08850
H461        H  0.52464913  0.10134700  0.46528039     0.08850
H462        H  0.45353290  0.94399066  0.34286360     0.08830
H463        H  0.40230113  0.95764412  0.36414873     0.08830
H464        H  0.43908887  0.92658954  0.39179439     0.05600
C465        C  0.53442843  0.00055440  0.88094263    -0.20200
C466        C  0.54394142  0.03904632  0.86262944    -0.06770
C467        C  0.53777164  0.07664880  0.88385906     0.14100
C468        C  0.52551863  0.07466514  0.92372288    -0.20250
C469        C  0.52072519  0.03609878  0.94370391    -0.06770
C470        C  0.52289843  0.99845283  0.92134185     0.14090
C471        C  0.51575020  0.95591269  0.93968466    -0.23600
H472        H  0.53836792  0.97181703  0.86414119     0.15380
H473        H  0.52227922  0.10365246  0.94022587     0.15410
C474        C  0.54467815  0.11901745  0.86485578    -0.23550
H475        H  0.52760338  0.93037726  0.92013855     0.05620
H476        H  0.48126056  0.95071180  0.94383240     0.08850
H477        H  0.53224107  0.95304385  0.96848356     0.08850
H478        H  0.52460964  0.12189917  0.83803053     0.08830
H479        H  0.57855951  0.12303340  0.85650574     0.08830
H480        H  0.53615837  0.14506293  0.88528591     0.05600
C481        C  0.50809820  0.02421256  0.62566134    -0.20200
C482        C  0.54716481  0.04406224  0.63237533    -0.06770
C483        C  0.56736938  0.06539776  0.60070520     0.14100
C484        C  0.55050127  0.06216247  0.56254516    -0.20250
C485        C  0.51475472  0.03724241  0.55473369    -0.06770
C486        C  0.49125225  0.02090780  0.58722222     0.14090
C487        C  0.44857098  0.00042551  0.58227352    -0.23600
H488        H  0.49146972  0.00981496  0.65039287     0.15380
H489        H  0.56725538  0.07679611  0.53804890     0.15410
C490        C  0.60695747  0.09128523  0.60659014    -0.23550
H491        H  0.43684371  0.98658846  0.61051656     0.05620
H492        H  0.44977828  0.97505765  0.56008211     0.08850
H493        H  0.42507408  0.02436191  0.57314631     0.08850
H494        H  0.63399845  0.07083136  0.61494130     0.08830
H495        H  0.60132444  0.11507200  0.63008304     0.08830
H496        H  0.61633079  0.10819571  0.57908084     0.05600
C497        C  0.25714939  0.20000485  0.25144352    -0.20200
C498        C  0.28017308  0.23757085  0.24739651    -0.06770
C499        C  0.32408207  0.23523623  0.23859452     0.14100
C500        C  0.34423638  0.19586122  0.23823821    -0.20250
C501        C  0.32160734  0.15851200  0.24529199    -0.06770
C502        C  0.27697244  0.16063831  0.25021060     0.14090
C503        C  0.24993928  0.12205147  0.25617070    -0.23600
H504        H  0.22331781  0.20152978  0.25708111     0.15380
H505        H  0.37818315  0.19446043  0.23283328     0.15410
C506        C  0.35097256  0.27316199  0.22991994    -0.23550
H507        H  0.21593231  0.13009000  0.26084114     0.05620
H508        H  0.26080751  0.10447005  0.28268445     0.08850
H509        H  0.25189372  0.10171499  0.22952319     0.08850
H510        H  0.37634340  0.27593806  0.25248014     0.08830
H511        H  0.33245406  0.30254236  0.22954318     0.08830
H512        H  0.36598154  0.26969304  0.20023462     0.05600
C513        C  0.27587703  0.34704755  0.18422699    -0.20200
C514        C  0.25331529  0.31071422  0.19480629    -0.06770
C515        C  0.23483144  0.28632159  0.16432410     0.14100
C516        C  0.23525483  0.30169261  0.12511379    -0.20250
C517        C  0.25436978  0.34026104  0.11549601    -0.06770
C518        C  0.27669751  0.36221972  0.14534167     0.14090
C519        C  0.30148240  0.40185486  0.13696789    -0.23600
H520        H  0.29133883  0.36509884  0.20716138     0.15380
H521        H  0.21983608  0.28383505  0.10197827     0.15410
C522        C  0.21510023  0.24408390  0.17217731    -0.23550
H523        H  0.31947246  0.41255922  0.16332060     0.05620
H524        H  0.27960764  0.42771389  0.12871337     0.08850
H525        H  0.32479129  0.39619888  0.11271762     0.08850
H526        H  0.19466802  0.24445610  0.19895873     0.08830
H527        H  0.24068933  0.22057469  0.17598406     0.08830
H528        H  0.19538001  0.23360062  0.14685898     0.05600
C529        C  0.09219181  0.13828578  0.50195392    -0.20200
C530        C  0.12895360  0.11388550  0.49649067    -0.06770
C531        C  0.12427167  0.07029604  0.48913485     0.14100
C532        C  0.08353147  0.05227671  0.49077734    -0.20250
C533        C  0.04733339  0.07623278  0.50014881    -0.06770
C534        C  0.05167257  0.12024181  0.50319553     0.14090
C535        C  0.01447938  0.14939850  0.50770227    -0.23600
H536        H  0.09491039  0.17197284  0.50565016     0.15380
H537        H  0.08041131  0.01878926  0.48686410     0.15410
C538        C  0.16176353  0.04199446  0.48117087    -0.23550
H539        H  0.01544453  0.17339283  0.48380224     0.05620
H540        H  0.01589812  0.16544516  0.53686377     0.08850
H541        H  0.98398299  0.13286823  0.50499052     0.08850
H542        H  0.18388210  0.04282500  0.50667169     0.08830
H543        H  0.17844732  0.05221692  0.45374148     0.08830
H544        H  0.15194774  0.00883162  0.47685976     0.05600
C545        C  0.36463400  0.06533877  0.49769582    -0.20200
C546        C  0.36758674  0.10889828  0.50264602    -0.06770
C547        C  0.40796510  0.12696147  0.50992435     0.14100
C548        C  0.44433838  0.10122413  0.50944860    -0.20250
C549        C  0.44151759  0.05823303  0.50090054    -0.06770
C550        C  0.40080604  0.03985625  0.49690067     0.14090
C551        C  0.39403797  0.99332433  0.49240187    -0.23600
H552        H  0.33380025  0.05093547  0.49348736     0.15380
H553        H  0.47527466  0.11516038  0.51383043     0.15410
C554        C  0.41319048  0.17315592  0.51812827    -0.23550
H555        H  0.38043321  0.98654507  0.46280267     0.05620
H556        H  0.37156912  0.98219649  0.51563373     0.08850
H557        H  0.42361255  0.97516287  0.49615147     0.08850
H558        H  0.39309392  0.18235806  0.54385685     0.09050
H559        H  0.40407273  0.19172903  0.49165792     0.08830
H560        H  0.44661975  0.18120403  0.52519332     0.05600
C561        C  0.27943544  0.27051603  0.37229554    -0.20200
C562        C  0.24472749  0.24609682  0.38436160    -0.06770
C563        C  0.21037859  0.24036542  0.35798527     0.14100
C564        C  0.21337974  0.25637827  0.31928958    -0.20250
C565        C  0.25046174  0.27627961  0.30575924    -0.06770
C566        C  0.28290371  0.28541051  0.33331236     0.14090
C567        C  0.32220706  0.30968888  0.32254338    -0.23600
H568        H  0.30529987  0.27601074  0.39272781     0.15380
H569        H  0.18819234  0.24995875  0.29849174     0.15410
C570        C  0.17081913  0.21679752  0.36999460    -0.23550
H571        H  0.35058311  0.28923958  0.32558803     0.05620
H572        H  0.32541460  0.33696787  0.34276813     0.08850
H573        H  0.32114679  0.32217885  0.29210805     0.08850
H574        H  0.15696700  0.23098453  0.39720085     0.08830
H575        H  0.17837766  0.18327535  0.37546504     0.08830
H576        H  0.14629506  0.21785584  0.34646633     0.05600
C577        C  0.18057492  0.23306343  0.75732147    -0.20200
C578        C  0.22462070  0.23257205  0.75063388    -0.06770
C579        C  0.24578698  0.19327342  0.75047208     0.14100
C580        C  0.22193998  0.15610942  0.75152540    -0.20250
C581        C  0.17744435  0.15680882  0.75336916    -0.06770
C582        C  0.15659232  0.19593289  0.75814007     0.14090
C583        C  0.10916530  0.19924354  0.76385610    -0.23600
H584        H  0.16416456  0.26262545  0.75988773     0.15380
H585        H  0.23828716  0.12619814  0.74999325     0.15410
C586        C  0.29342112  0.18965831  0.75073588    -0.23550
H587        H  0.09890966  0.23212148  0.76930811     0.05620
H588        H  0.09915750  0.18014368  0.78983116     0.08850
H589        H  0.09259054  0.18829122  0.73684209     0.08850
H590        H  0.30566050  0.20390947  0.77822090     0.08830
H591        H  0.30773649  0.20467991  0.72448863     0.08830
H592        H  0.30405622  0.15640183  0.75063811     0.05600
C593        C  0.21586793  0.31174063  0.82005726    -0.20200
C594        C  0.25535543  0.30018951  0.80390511    -0.06770
C595        C  0.29055911  0.29641040  0.82973480     0.14100
C596        C  0.28658119  0.30933735  0.86927723    -0.20250
C597        C  0.24845504  0.32610601  0.88374621    -0.06770
C598        C  0.21207604  0.32561557  0.85938220     0.14090
C599        C  0.16933819  0.34025964  0.87435858    -0.23600
H600        H  0.18834154  0.31296229  0.80120310     0.15380
H601        H  0.31422760  0.30846985  0.88829585     0.15410
C602        C  0.33296421  0.27939594  0.81685935    -0.23550
H603        H  0.14403311  0.33522799  0.85205378     0.05620
H604        H  0.17017955  0.37433128  0.88103600     0.08850
H605        H  0.16053116  0.32251746  0.90153089     0.08850
H606        H  0.35742673  0.30438082  0.81887443     0.08830
H607        H  0.33238410  0.26706773  0.78638596     0.08830
H608        H  0.34211954  0.25294397  0.83652151     0.05600
C609        C  0.28897655  0.26462370  0.67377288    -0.20200
C610        C  0.24961716  0.27442271  0.69117516    -0.06770
C611        C  0.21332878  0.27654738  0.66652338     0.14100
C612        C  0.21624224  0.26311912  0.62707603    -0.20250
C613        C  0.25441960  0.24762098  0.61149583    -0.06770
C614        C  0.29174807  0.25013951  0.63451680     0.14090
C615        C  0.33441073  0.23699851  0.61818896    -0.23600
H616        H  0.31722916  0.26490025  0.69181049     0.15380
H617        H  0.18785436  0.26270253  0.60901951     0.15410
C618        C  0.17087965  0.29239904  0.68063848    -0.23550
H619        H  0.36036703  0.24334752  0.63951899     0.05620
H620        H  0.34137820  0.25467203  0.59052211     0.08850
H621        H  0.33466198  0.20282653  0.61191116     0.08850
H622        H  0.17236708  0.30582154  0.71071279     0.08830
H623        H  0.14730484  0.26650177  0.68023388     0.08830
H624        H  0.15984969  0.31787308  0.66067242     0.05600
C625        C  0.40138212  0.54387112  0.48977027    -0.20200
C626        C  0.44075172  0.56393603  0.49400999    -0.06770
C627        C  0.44195987  0.60831387  0.49257225     0.14100
C628        C  0.40365553  0.63096926  0.49043435    -0.20250
C629        C  0.36400841  0.61065071  0.48908362    -0.06770
C630        C  0.36320496  0.56625605  0.48693087     0.14090
C631        C  0.32253982  0.54163912  0.48284700    -0.23600
H632        H  0.40008776  0.51016376  0.48902129     0.15380
H633        H  0.40474805  0.66495621  0.49067624     0.15410
C634        C  0.48311114  0.63233497  0.49332086    -0.23550
H635        H  0.32843557  0.50728917  0.48122896     0.05620
H636        H  0.30607633  0.55091823  0.45516113     0.08850
H637        H  0.30162473  0.54729417  0.50890005     0.08850
H638        H  0.50284007  0.62363382  0.46739047     0.08830
H639        H  0.50072249  0.62602787  0.52081993     0.08830
H640        H  0.47774204  0.66676304  0.49179890     0.05600
C641        C  0.55060047  0.56312009  0.43314164    -0.20200
C642        C  0.51430491  0.53893267  0.44128095    -0.06770
C643        C  0.49166744  0.52155190  0.40905547     0.14100
C644        C  0.50920825  0.52401291  0.37065665    -0.20250
C645        C  0.54821326  0.54407676  0.36354664    -0.06770
C646        C  0.56790180  0.56596849  0.39495453     0.14090
C647        C  0.60738698  0.59210355  0.38893668    -0.23600
H648        H  0.56719355  0.57787856  0.45745084     0.15380
H649        H  0.49302837  0.50889277  0.34627105     0.15410
C650        C  0.44970838  0.49963489  0.41437327    -0.23550
H651        H  0.61602903  0.60958435  0.41620073     0.05620
H652        H  0.60204755  0.61548278  0.36502476     0.08850
H653        H  0.63478903  0.57171970  0.38123447     0.08850
H654        H  0.42440273  0.52354027  0.41760446     0.08830
H655        H  0.44977244  0.47866416  0.44054153     0.08830
H656        H  0.44169354  0.48029038  0.38809099     0.05600
C657        C  0.28435515  0.41767058  0.74371198    -0.20200
C658        C  0.32889058  0.41739403  0.74525827    -0.06770
C659        C  0.35038575  0.37840420  0.74195358     0.14100
C660        C  0.32670773  0.34106987  0.74100775    -0.20250
C661        C  0.28229475  0.34121991  0.74471127    -0.06770
C662        C  0.26086293  0.38027091  0.74290529     0.14090
C663        C  0.21351399  0.38321322  0.73807155    -0.23600
H664        H  0.26761273  0.44740832  0.74374109     0.15380
H665        H  0.34341049  0.31157764  0.73918946     0.15410
C666        C  0.39814144  0.37540808  0.73968612    -0.23550
H667        H  0.20245269  0.41631731  0.73707135     0.05620
H668        H  0.19660551  0.36789532  0.76278029     0.08850
H669        H  0.20469302  0.36864514  0.70953870     0.08850
H670        H  0.41233306  0.38676091  0.76773114     0.08830
H671        H  0.41012187  0.39431790  0.71431607     0.08830
H672        H  0.40905971  0.34256133  0.73528672     0.05600
C673        C  0.34060012  0.69103178  0.75932930    -0.20200
C674        C  0.31954856  0.65241124  0.75495703    -0.06770
C675        C  0.27482456  0.65234997  0.75080430     0.14100
C676        C  0.25309103  0.69069419  0.74867856    -0.20250
C677        C  0.27420882  0.72936386  0.75134860    -0.06770
C678        C  0.31868027  0.72943066  0.75738465     0.14090
C679        C  0.34453783  0.76904349  0.75989769    -0.23600
H680        H  0.37477267  0.69140345  0.76307731     0.15380
H681        H  0.21933026  0.69038530  0.74318759     0.15410
C682        C  0.24967828  0.61234728  0.74647225    -0.23550
H683        H  0.36975468  0.76863576  0.73674225     0.05620
H684        H  0.35967737  0.77101962  0.78947938     0.08850
H685        H  0.32535855  0.79763448  0.75525369     0.08850
H686        H  0.25261919  0.59306672  0.77374924     0.08830
H687        H  0.26138386  0.59436674  0.72042759     0.08830
H688        H  0.21532175  0.61860792  0.74197754     0.05600
C689        C  0.43986429  0.49941725  0.60835084    -0.20200
C690        C  0.45560777  0.53117063  0.63302352    -0.06770
C691        C  0.48632848  0.55921567  0.61768469     0.14100
C692        C  0.49675589  0.55749074  0.57711425    -0.20250
C693        C  0.47725959  0.52866859  0.55145613    -0.06770
C694        C  0.45070865  0.49739013  0.56811153     0.14090
C695        C  0.43284599  0.46154078  0.54464251    -0.23600
H696        H  0.41787746  0.47641357  0.62033266     0.15380
H697        H  0.51871728  0.58022707  0.56522383     0.15410
C698        C  0.50637244  0.59252667  0.64309579    -0.23550
H699        H  0.44366894  0.43135345  0.55763373     0.05620
H700        H  0.44333168  0.46231433  0.51347323     0.08850
H701        H  0.39759053  0.46259733  0.54559950     0.08850
H702        H  0.52435874  0.57755096  0.66754614     0.08830
H703        H  0.48141941  0.61341262  0.65557549     0.08830
H704        H  0.52892783  0.61231635  0.62589198     0.05600
C705        C  0.44858469  0.46951020  0.99799841    -0.20200
C706        C  0.44510944  0.51325493  0.00127387    -0.06770
C707        C  0.40482603  0.53125139  0.00854401     0.14100
C708        C  0.36874094  0.50573110  0.00809022    -0.20250
C709        C  0.37153995  0.46234652  0.00101009    -0.06770
C710        C  0.41239274  0.44373343  0.99744418     0.14090
C711        C  0.41853887  0.39715657  0.99203878    -0.23600
H712        H  0.47967478  0.45568639  0.99352377     0.15380
H713        H  0.33796534  0.52034849  0.01248469     0.15410
C714        C  0.39839612  0.57726971  0.01647216    -0.23550
H715        H  0.45269634  0.38848151  0.99062615     0.05620
H716        H  0.40381180  0.38687127  0.96385874     0.08850
H717        H  0.40413485  0.37999320  0.01742382     0.08850
H718        H  0.37911167  0.59141720  0.99245900     0.08830
H719        H  0.42862137  0.59443995  0.01888066     0.08830
H720        H  0.38132785  0.58131768  0.04511936     0.05600
C721        C  0.49394865  0.51078456  0.92068091    -0.20200
C722        C  0.48429683  0.54604982  0.94412910    -0.06770
C723        C  0.46812250  0.58239409  0.92544355     0.14100
C724        C  0.45618539  0.58035706  0.88554624    -0.20250
C725        C  0.46154499  0.54351917  0.86329141    -0.06770
C726        C  0.48265150  0.50892753  0.88051691     0.14090
C727        C  0.49042137  0.46891729  0.85780763    -0.23600
H728        H  0.50781138  0.48338166  0.93455006     0.15380
H729        H  0.44150094  0.60757249  0.87194611     0.15410
C730        C  0.46258737  0.62364056  0.94634447    -0.23550
H731        H  0.50598649  0.44463830  0.87642022     0.05620
H732        H  0.51155411  0.47529256  0.83205544     0.08850
H733        H  0.45978300  0.45591155  0.84728168     0.08850
H734        H  0.48018160  0.64841488  0.92991862     0.08830
H735        H  0.47540726  0.62296988  0.97659592     0.08830
H736        H  0.42844009  0.63226038  0.94748920     0.05600
C737        C  0.49163321  0.55292537  0.08465155    -0.20200
C738        C  0.51591698  0.53421768  0.05442589    -0.06770
C739        C  0.54991717  0.50763240  0.06503146     0.14100
C740        C  0.56372969  0.50680961  0.10432016    -0.20250
C741        C  0.54323252  0.53045627  0.13386330    -0.06770
C742        C  0.50514361  0.55185170  0.12434513     0.14090
C743        C  0.48020941  0.57598595  0.15500777    -0.23600
H744        H  0.46402823  0.57128890  0.07697582     0.15380
H745        H  0.59147125  0.48822260  0.11167845     0.15410
C746        C  0.57262432  0.48021285  0.03538377    -0.23550
H747        H  0.45201990  0.59167407  0.14196992     0.05620
H748        H  0.50052891  0.60064642  0.16831014     0.08850
H749        H  0.46872135  0.55427516  0.17848237     0.08850
H750        H  0.60596848  0.49092670  0.03174021     0.08830
H751        H  0.55676070  0.48016838  0.00616039     0.08830
H752        H  0.57264682  0.44725557  0.04615617     0.05600
C753        C  0.05824444  0.59996156  0.51925801    -0.20200
C754        C  0.06210233  0.55863876  0.50525019    -0.06770
C755        C  0.10316141  0.54196990  0.49826439     0.14100
C756        C  0.13882878  0.56759163  0.50316427    -0.20250
C757        C  0.13490084  0.61003326  0.51360869    -0.06770
C758        C  0.09402852  0.62598552  0.52341260     0.14090
C759        C  0.08743215  0.67035079  0.53767272    -0.23600
H760        H  0.02681791  0.61277601  0.52447451     0.15380
H761        H  0.16995444  0.55482193  0.49644211     0.15410
C762        C  0.10995060  0.49743147  0.48470067    -0.23550
H763        H  0.05385191  0.67623713  0.54631741     0.05620
H764        H  0.09555499  0.69294048  0.51375847     0.08850
H765        H  0.10746873  0.67626864  0.56406769     0.08850
H766        H  0.09799765  0.49352979  0.45418114     0.08830
H767        H  0.09369811  0.47534136  0.50512045     0.08830
H768        H  0.14414846  0.48885537  0.48410408     0.05600
C769        C  0.09724492  0.53207393  0.99799017    -0.20200
C770        C  0.05844886  0.51085410  0.99441612    -0.06770
C771        C  0.05862609  0.46764908  0.98463216     0.14100
C772        C  0.09761978  0.44643267  0.98177277    -0.20250
C773        C  0.13636915  0.46735232  0.98741044    -0.06770
C774        C  0.13616717  0.51128333  0.99372509     0.14090
C775        C  0.17644633  0.53629688  0.99854898    -0.23600
H776        H  0.09696078  0.56490828  0.00644772     0.15380
H777        H  0.09780231  0.41298283  0.97593936     0.15410
C778        C  0.01823719  0.44293286  0.97950581    -0.23550
H779        H  0.16982557  0.57000420  0.00436625     0.05620
H780        H  0.19573280  0.53454093  0.97094435     0.08850
H781        H  0.19497151  0.52394242  0.02392366     0.08850
H782        H  0.00411589  0.45063005  0.95046719     0.08830
H783        H  0.99506913  0.44969282  0.00355664     0.08830
H784        H  0.02440922  0.40859619  0.97958109     0.05600
C785        C  0.23923952  0.37638174  0.27143286    -0.20200
C786        C  0.21726097  0.34261785  0.25436863    -0.06770
C787        C  0.17341724  0.34706689  0.24681708     0.14100
C788        C  0.15356774  0.38573679  0.25372690    -0.20250
C789        C  0.17654177  0.42100181  0.26641663    -0.06770
C790        C  0.21972102  0.41570312  0.27709255     0.14090
C791        C  0.24593052  0.45118778  0.29342909    -0.23600
H792        H  0.27275003  0.37308336  0.27739310     0.15380
H793        H  0.12028831  0.38904002  0.24634875     0.15410
C794        C  0.14752454  0.31208942  0.22935366    -0.23550
H795        H  0.27820995  0.44054158  0.30203075     0.05620
H796        H  0.23022386  0.46429165  0.32025299     0.08850
H797        H  0.24990658  0.47611148  0.27071060     0.08850
H798        H  0.15131310  0.28306756  0.24711739     0.08830
H799        H  0.15756566  0.30671354  0.19829753     0.08830
H800        H  0.11313417  0.31986926  0.22881513     0.05600
C801        C  0.24684861  0.69929405  0.24831109    -0.20200
C802        C  0.22335505  0.73664683  0.24577491    -0.06770
C803        C  0.17941116  0.73422510  0.23752347     0.14100
C804        C  0.15978615  0.69464529  0.23605716    -0.20250
C805        C  0.18274589  0.65722341  0.24203564    -0.06770
C806        C  0.22742169  0.65972344  0.24659137     0.14090
C807        C  0.25508333  0.62134397  0.25112674    -0.23600
H808        H  0.28053241  0.70101304  0.25392730     0.15380
H809        H  0.12587961  0.69309766  0.23101868     0.15410
C810        C  0.15263219  0.77266828  0.23020387    -0.23550
H811        H  0.28924496  0.62961338  0.25351243     0.05620
H812        H  0.25156766  0.60069071  0.22486490     0.08850
H813        H  0.24619545  0.60405762  0.27852639     0.08850
H814        H  0.16203937  0.78713811  0.20167142     0.08830
H815        H  0.15592174  0.79586143  0.25428551     0.08830
H816        H  0.11839427  0.76474647  0.22789849     0.05600
C817        C  0.03620823  0.57074471  0.11959689    -0.20200
C818        C  0.05117631  0.53364857  0.13683338    -0.06770
C819        C  0.04992924  0.49618082  0.11477810     0.14100
C820        C  0.03304671  0.49681956  0.07640725    -0.20250
C821        C  0.02192913  0.53458529  0.05692617    -0.06770
C822        C  0.02363137  0.57231808  0.07957878     0.14090
C823        C  0.01628524  0.61502204  0.06215745    -0.23600
H824        H  0.03750040  0.59945525  0.13677073     0.15380
H825        H  0.03213359  0.46757225  0.06031967     0.15410
C826        C  0.06722820  0.45549140  0.13105511    -0.23550
H827        H  0.02664146  0.64041016  0.08245821     0.05620
H828        H  0.98197960  0.62012857  0.05756943     0.08850
H829        H  0.03510415  0.61853732  0.03459673     0.08850
H830        H  0.05117175  0.44775021  0.15949956     0.08830
H831        H  0.10197123  0.45827422  0.13588414     0.08830
H832        H  0.06226439  0.42891730  0.11030829     0.05600
C833        C  0.03142293  0.50348147  0.38305176    -0.20200
C834        C  0.04040757  0.54282187  0.36629174    -0.06770
C835        C  0.03328732  0.57936159  0.38891163     0.14100
C836        C  0.02091661  0.57537842  0.42869944    -0.20250
C837        C  0.01798050  0.53587896  0.44733820    -0.06770
C838        C  0.02060051  0.49934355  0.42341271     0.14090
C839        C  0.01502582  0.45582814  0.43998713    -0.23600
H840        H  0.03593685  0.47556843  0.36516611     0.15380
H841        H  0.01726714  0.60352836  0.44639189     0.15410
C842        C  0.03963703  0.62259435  0.37161584    -0.23550
H843        H  0.02353618  0.43135499  0.41789936     0.05620
H844        H  0.98134496  0.45066747  0.44797830     0.08850
H845        H  0.03554417  0.45106026  0.46606643     0.08850
H846        H  0.01977255  0.62630077  0.34474949     0.08830
H847        H  0.07352224  0.62749406  0.36372697     0.08830
H848        H  0.03049400  0.64758070  0.39297696     0.05600
C849        C  0.99024630  0.54958207  0.87450869    -0.20200
C850        C  0.95207567  0.52822306  0.86739155    -0.06770
C851        C  0.93238854  0.50626595  0.89895776     0.14100
C852        C  0.94867897  0.51030352  0.93726015    -0.20250
C853        C  0.98423114  0.53550487  0.94541640    -0.06770
C854        C  0.00668164  0.55357968  0.91300857     0.14090
C855        C  0.04710685  0.57817926  0.91721115    -0.23600
H856        H  0.00634162  0.56520644  0.85012072     0.15380
H857        H  0.93229294  0.49494700  0.96159244     0.15410
C858        C  0.89417766  0.47849351  0.89284147    -0.23550
H859        H  0.04265010  0.61033412  0.90515608     0.05620
H860        H  0.07289222  0.56242815  0.90025167     0.08850
H861        H  0.05745361  0.58099026  0.94815819     0.08850
H862        H  0.90112889  0.45505322  0.86932928     0.08830
H863        H  0.86616562  0.49761177  0.88448965     0.08830
H864        H  0.88555317  0.46103295  0.92025445     0.05600
C865        C  0.99505903  0.52575499  0.62980068    -0.20200
C866        C  0.95619031  0.54623039  0.63688815    -0.06770
C867        C  0.93717713  0.56912538  0.60563940     0.14100
C868        C  0.95424099  0.56591078  0.56739507    -0.20250
C869        C  0.98916791  0.53987650  0.55914852    -0.06770
C870        C  0.01229515  0.52287987  0.59127733     0.14090
C871        C  0.05416040  0.50078357  0.58549603    -0.23600
H872        H  0.01104155  0.51027963  0.65415450     0.15380
H873        H  0.93793690  0.58104769  0.54302859     0.15410
C874        C  0.89847505  0.59641998  0.61182339    -0.23550
H875        H  0.06545731  0.48620948  0.61344476     0.05620
H876        H  0.07856740  0.52376366  0.57608333     0.08850
H877        H  0.05170748  0.47573559  0.56303788     0.08850
H878        H  0.90436260  0.61914767  0.63611117     0.08830
H879        H  0.87036451  0.57683961  0.61902778     0.08830
H880        H  0.89060943  0.61469226  0.58476182     0.05600
C881        C  0.63822129  0.06902147  0.00179609    -0.20200
C882        C  0.63425547  0.11197962  0.01002281    -0.06770
C883        C  0.59336896  0.12868716  0.01823655     0.14100
C884        C  0.55754632  0.10255780  0.01499580    -0.20250
C885        C  0.56148717  0.06056506  0.00286834    -0.06770
C886        C  0.60258062  0.04335961  0.99730742     0.14090
C887        C  0.60952474  0.99830523  0.98525803    -0.23600
H888        H  0.66943293  0.05581683  0.99628331     0.15380
H889        H  0.52608301  0.11577126  0.01898228     0.15410
C890        C  0.58695637  0.17389308  0.02992652    -0.23550
H891        H  0.64367715  0.98957339  0.98582448     0.05620
H892        H  0.59852407  0.99334290  0.95457576     0.08850
H893        H  0.59260597  0.97688278  0.00579324     0.08850
H894        H  0.59601751  0.19488969  0.00502552     0.08830
H895        H  0.60643221  0.18120061  0.05637351     0.08830
H896        H  0.55323924  0.18062038  0.03746804     0.05600
C897        C  0.92306835  0.06423467  0.98301428    -0.20200
C898        C  0.95629340  0.08456113  0.00293087    -0.06770
C899        C  0.94933952  0.12584269  0.01723235     0.14100
C900        C  0.90952482  0.14475174  0.01239277    -0.20250
C901        C  0.87533514  0.12319256  0.99549746    -0.06770
C902        C  0.88262306  0.08264606  0.97944671     0.14090
C903        C  0.84809418  0.05791700  0.95937565    -0.23600
H904        H  0.92766044  0.03226290  0.97312885     0.15380
H905        H  0.90443615  0.17595174  0.02426308     0.15410
C906        C  0.98248953  0.14997533  0.03962714    -0.23550
H907        H  0.86020027  0.02776271  0.94722094     0.05620
H908        H  0.83491067  0.07634830  0.93433501     0.08850
H909        H  0.82252186  0.05024906  0.98096719     0.08850
H910        H  0.01201433  0.15240082  0.02201479     0.08830
H911        H  0.98843891  0.13477247  0.06849573     0.08830
H912        H  0.97204974  0.18255627  0.04622407     0.05600
C913        C  0.59405189  0.43973668  0.49257845    -0.20200
C914        C  0.62767240  0.46258641  0.50900056    -0.06770
C915        C  0.61969992  0.50380851  0.52289729     0.14100
C916        C  0.57899936  0.52143597  0.51796453    -0.20250
C917        C  0.54642733  0.49962769  0.49835766    -0.06770
C918        C  0.55424023  0.45783384  0.48597297     0.14090
C919        C  0.52218352  0.43222539  0.46360493    -0.23600
H920        H  0.59970320  0.40804689  0.48216316     0.15380
H921        H  0.57370243  0.55375532  0.52649181     0.15410
C922        C  0.65377996  0.52981580  0.54211188    -0.23550
H923        H  0.53354529  0.39973594  0.45799800     0.05620
H924        H  0.51641543  0.44642541  0.43425585     0.08850
H925        H  0.49242041  0.42945478  0.48074060     0.08850
H926        H  0.67957936  0.53646471  0.52045814     0.08830
H927        H  0.66682110  0.51279063  0.56808188     0.08830
H928        H  0.64126864  0.56047283  0.55267791     0.05600
C929        C  0.90472229  0.44187260  0.51399629    -0.20200
C930        C  0.87188811  0.46375158  0.49512490    -0.06770
C931        C  0.88062876  0.50390929  0.47880832     0.14100
C932        C  0.92146479  0.52144680  0.48340703    -0.20250
C933        C  0.95326477  0.50039088  0.50481643    -0.06770
C934        C  0.94462531  0.45975638  0.51985734     0.14090
C935        C  0.97677150  0.43475143  0.54289011    -0.23600
H936        H  0.89855692  0.41103430  0.52632893     0.15380
H937        H  0.92790542  0.55273112  0.47223882     0.15410
C938        C  0.84734669  0.52859050  0.45692333    -0.23550
H939        H  0.96592829  0.40208508  0.54841189     0.05620
H940        H  0.98163962  0.44917231  0.57227109     0.08850
H941        H  0.00709996  0.43272491  0.52628364     0.08850
H942        H  0.82077511  0.53668667  0.47728186     0.08830
H943        H  0.83522316  0.50983576  0.43168785     0.08830
H944        H  0.86031841  0.55844034  0.44486954     0.05600
C945        C  0.75125283  0.38262290  0.74577853    -0.20200
C946        C  0.77215763  0.34418599  0.75154590    -0.06770
C947        C  0.81601451  0.34434564  0.76051005     0.14100
C948        C  0.83795835  0.38278794  0.76108734    -0.20250
C949        C  0.81714639  0.42113240  0.75393057    -0.06770
C950        C  0.77278219  0.42098368  0.74723993     0.14090
C951        C  0.74788418  0.46064109  0.73953532    -0.23600
H952        H  0.71784285  0.38256434  0.73863020     0.15380
H953        H  0.87170139  0.38287784  0.76722533     0.15410
C954        C  0.84016875  0.30460461  0.76944586    -0.23550
H955        H  0.71397686  0.45403566  0.73310231     0.05620
H956        H  0.76142003  0.47742330  0.71351535     0.08850
H957        H  0.74867205  0.48118916  0.76606481     0.08850
H958        H  0.83388414  0.27990899  0.74719187     0.08830
H959        H  0.83097847  0.29303483  0.79921024     0.08830
H960        H  0.87497834  0.31016786  0.76997494     0.05600
C961        C  0.64864786  0.19181629  0.76018551    -0.20200
C962        C  0.67014164  0.15944298  0.74037046    -0.06770
C963        C  0.70980586  0.16830100  0.72207073     0.14100
C964        C  0.72782328  0.20852780  0.72638334    -0.20250
C965        C  0.70781661  0.23962371  0.74942573    -0.06770
C966        C  0.66711710  0.23121784  0.76574871     0.14090
C967        C  0.64299218  0.26285058  0.79031947    -0.23600
H968        H  0.61802185  0.18551628  0.77375273     0.15380
H969        H  0.75912273  0.21476165  0.71420640     0.15410
C970        C  0.73357248  0.13570632  0.69841257    -0.23550
H971        H  0.61012487  0.25221205  0.79695413     0.05620
H972        H  0.64045343  0.29309522  0.77437237     0.08850
H973        H  0.65873735  0.26731415  0.81916942     0.08850
H974        H  0.71306273  0.12366425  0.67429918     0.08830
H975        H  0.74337352  0.10944017  0.71796743     0.08830
H976        H  0.76280633  0.14884582  0.68461999     0.05600
C977        C  0.73630462  0.28162614  0.87617963    -0.20200
C978        C  0.75442600  0.24215889  0.88402533    -0.06770
C979        C  0.77394115  0.21975372  0.85262536     0.14100
C980        C  0.77051585  0.23506129  0.81396473    -0.20250
C981        C  0.74802112  0.27201969  0.80530916    -0.06770
C982        C  0.73326157  0.29719269  0.83715545     0.14090
C983        C  0.71282388  0.33936872  0.83062355    -0.23600
H984        H  0.72298849  0.29963927  0.90049337     0.15380
H985        H  0.78355584  0.21666624  0.78977280     0.15410
C986        C  0.79825722  0.17947588  0.85922223    -0.23550
H987        H  0.69681175  0.35093852  0.85792943     0.05620
H988        H  0.68882731  0.33803564  0.80679852     0.08850
H989        H  0.73761125  0.36258077  0.82276388     0.08850
H990        H  0.77640989  0.15405878  0.86874029     0.08830
H991        H  0.82306995  0.18440947  0.88200854     0.08830
H992        H  0.81436735  0.16858912  0.83170015     0.05600
C993        C  0.78204196  0.30261509  0.67142120    -0.20200
C994        C  0.74416246  0.30435310  0.69373336    -0.06770
C995        C  0.70617060  0.31628467  0.67429491     0.14100
C996        C  0.70795490  0.32925165  0.63439334    -0.20250
C997        C  0.74671927  0.33150444  0.61389767    -0.06770
C998        C  0.78397137  0.31684737  0.63214502     0.14090
C999        C  0.82605348  0.31740734  0.61059646    -0.23600
H1000       H  0.81118509  0.29336092  0.68570301     0.15380
H1001       H  0.67935761  0.34008458  0.61983067     0.15410
C1002       C  0.66399268  0.31724742  0.69541807    -0.23550
H1003       H  0.85194096  0.30410757  0.62900534     0.05620
H1004       H  0.83484124  0.35014293  0.60280597     0.08850
H1005       H  0.82380190  0.29847516  0.58307655     0.08850
H1006       H  0.66573696  0.33660603  0.72257493     0.08830
H1007       H  0.65432244  0.28484526  0.70301642     0.08830
H1008       H  0.63862480  0.33064346  0.67645832     0.05600
C1009       C  0.74413238  0.37758032  0.24472697    -0.20200
C1010       C  0.72071721  0.34042607  0.24895886    -0.06770
C1011       C  0.67596029  0.34219911  0.24596875     0.14100
C1012       C  0.65589855  0.38132237  0.24242715    -0.20250
C1013       C  0.67919608  0.41892107  0.24180458    -0.06770
C1014       C  0.72419761  0.41679872  0.24127334     0.14090
C1015       C  0.75177436  0.45544177  0.23911079    -0.23600
H1016       H  0.77836563  0.37620350  0.24614339     0.15380
H1017       H  0.62150638  0.38241004  0.24146414     0.15410
C1018       C  0.64811402  0.30392956  0.24766411    -0.23550
H1019       H  0.78613123  0.44750748  0.23986514     0.05620
H1020       H  0.74497240  0.47623863  0.26476767     0.08850
H1021       H  0.74583870  0.47248210  0.21095586     0.08850
H1022       H  0.66647979  0.27486373  0.25188868     0.08830
H1023       H  0.63014324  0.30111330  0.21957094     0.08830
H1024       H  0.62523886  0.30678263  0.27270024     0.05600
C1025       C  0.77143487  0.20624160  0.28109041    -0.20200
C1026       C  0.78599864  0.23709232  0.25461453    -0.06770
C1027       C  0.82489415  0.23047325  0.23435675     0.14100
C1028       C  0.84471735  0.19133684  0.23642393    -0.20250
C1029       C  0.82748409  0.15846917  0.25900051    -0.06770
C1030       C  0.79126197  0.16663382  0.28311024     0.14090
C1031       C  0.77278112  0.13392659  0.31048300    -0.23600
H1032       H  0.74261846  0.21194682  0.29794905     0.15380
H1033       H  0.87350896  0.18633659  0.21928117     0.15410
C1034       C  0.84662881  0.26421584  0.21040999    -0.23550
H1035       H  0.74589490  0.14660434  0.32828672     0.05620
H1036       H  0.79750107  0.12282146  0.33138419     0.08850
H1037       H  0.76044829  0.10711536  0.29303443     0.08850
H1038       H  0.87989775  0.26773767  0.22064431     0.08830
H1039       H  0.83131235  0.29524555  0.21404163     0.08830
H1040       H  0.84688891  0.25544566  0.17856075     0.05600
C1041       C  0.71395393  0.30192506  0.33246098    -0.20200
C1042       C  0.75061805  0.30414012  0.30858841    -0.06770
C1043       C  0.78924838  0.31737619  0.32598956     0.14100
C1044       C  0.78908112  0.33123648  0.36561634    -0.20250
C1045       C  0.75130893  0.33287038  0.38774577    -0.06770
C1046       C  0.71357255  0.31696672  0.37143941     0.14090
C1047       C  0.67261094  0.31679758  0.39481019    -0.23600
H1048       H  0.68458790  0.29097512  0.31975211     0.15380
H1049       H  0.81810560  0.34287355  0.37875984     0.15410
C1050       C  0.83049986  0.31799875  0.30321591    -0.23550
H1051       H  0.64622093  0.30252577  0.37778350     0.05620
H1052       H  0.66326424  0.34942532  0.40244287     0.08850
H1053       H  0.67679818  0.29840736  0.42249613     0.08850
H1054       H  0.82753538  0.33655686  0.27567130     0.08830
H1055       H  0.84017422  0.28550421  0.29597578     0.08830
H1056       H  0.85654775  0.33201635  0.32086548     0.05600
C1057       C  0.75867410  0.29426047  0.16994045    -0.20200
C1058       C  0.74246560  0.26668090  0.19890012    -0.06770
C1059       C  0.72122448  0.22986846  0.18636238     0.14100
C1060       C  0.72175938  0.21896605  0.14632901    -0.20250
C1061       C  0.74224499  0.24392627  0.11788234    -0.06770
C1062       C  0.75931425  0.28308973  0.12950253     0.14090
C1063       C  0.78079059  0.31177663  0.10012512    -0.23600
H1064       H  0.77408510  0.32293933  0.17921909     0.15380
H1065       H  0.70687893  0.18978769  0.13742873     0.15410
C1066       C  0.69835613  0.20046806  0.21423476    -0.23550
H1067       H  0.79361916  0.34032948  0.11462380     0.05620
H1068       H  0.75763652  0.32204855  0.07739474     0.08850
H1069       H  0.80766397  0.29510934  0.08557771     0.08850
H1070       H  0.66506240  0.19641242  0.20424677     0.08830
H1071       H  0.69685846  0.21219843  0.24494281     0.08830
H1072       H  0.71437689  0.16939035  0.21419453     0.05600
C1073       C  0.59711533  0.63551344  0.01496948    -0.20200
C1074       C  0.62962210  0.61706963  0.99238329    -0.06770
C1075       C  0.62091306  0.57979425  0.97103376     0.14100
C1076       C  0.58073294  0.56089620  0.97492148    -0.20250
C1077       C  0.54951956  0.57770208  0.00027060    -0.06770
C1078       C  0.55736647  0.61661570  0.01907027     0.14090
C1079       C  0.52486593  0.63943280  0.04393575    -0.23600
H1080       H  0.60300821  0.66458764  0.03068684     0.15380
H1081       H  0.57461941  0.53154966  0.95987966     0.15410
C1082       C  0.65357046  0.55950071  0.94442715    -0.23550
H1083       H  0.53549411  0.64051727  0.07525175     0.05620
H1084       H  0.49315290  0.62493355  0.04270782     0.08850
H1085       H  0.52123216  0.67204217  0.03276284     0.08850
H1086       H  0.68089317  0.54835466  0.96221701     0.08830
H1087       H  0.66464769  0.58240101  0.92179279     0.08830
H1088       H  0.64039951  0.53188368  0.92863042     0.05600
C1089       C  0.91848784  0.55211604  0.02128605    -0.20200
C1090       C  0.95243377  0.57310393  0.00266132    -0.06770
C1091       C  0.94577514  0.61426525  0.98810755     0.14100
C1092       C  0.90562393  0.63225537  0.99047392    -0.20250
C1093       C  0.87079188  0.61056958  0.00639148    -0.06770
C1094       C  0.87746457  0.57003467  0.02282728     0.14090
C1095       C  0.84166763  0.54476716  0.04052068    -0.23600
H1096       H  0.92336128  0.52029597  0.03176220     0.15380
H1097       H  0.90160236  0.66363461  0.97858496     0.15410
C1098       C  0.98022703  0.64074022  0.96979234    -0.23550
H1099       H  0.85283877  0.51391582  0.05180133     0.05620
H1100       H  0.81722563  0.53863198  0.01765267     0.08850
H1101       H  0.82726881  0.56209359  0.06577308     0.08850
H1102       H  0.97325909  0.64626944  0.93798148     0.08830
H1103       H  0.01175741  0.62636156  0.97254389     0.08830
H1104       H  0.98178785  0.67144553  0.98528855     0.05600
C1105       C  0.84395591  0.88353782  0.26500206    -0.20200
C1106       C  0.82658278  0.91698790  0.24343835    -0.06770
C1107       C  0.79027893  0.90944231  0.21964560     0.14100
C1108       C  0.77050480  0.86980447  0.22105568    -0.20250
C1109       C  0.78546109  0.83812731  0.24632001    -0.06770
C1110       C  0.82435149  0.84430112  0.26628684     0.14090
C1111       C  0.84632325  0.80999206  0.28914180    -0.23600
H1112       H  0.87277556  0.88808629  0.28188850     0.15380
H1113       H  0.74156240  0.86458424  0.20458427     0.15410
C1114       C  0.77167337  0.94280496  0.19321802    -0.23550
H1115       H  0.84671392  0.81796601  0.32117454     0.05620
H1116       H  0.87955348  0.80678166  0.27833599     0.08850
H1117       H  0.83110197  0.77904017  0.28508565     0.08850
H1118       H  0.79627983  0.95428856  0.17213749     0.08830
H1119       H  0.75948058  0.96926138  0.21139005     0.08830
H1120       H  0.74467535  0.93060807  0.17558823     0.05600
C1121       C  0.74457064  0.69646513  0.24881162    -0.20200
C1122       C  0.72134234  0.73401834  0.25002580    -0.06770
C1123       C  0.67691223  0.73221320  0.25630356     0.14100
C1124       C  0.65667590  0.69291084  0.25678421    -0.20250
C1125       C  0.67970032  0.65532197  0.25247716    -0.06770
C1126       C  0.72461751  0.65720306  0.25007707     0.14090
C1127       C  0.75198555  0.61843040  0.24677648    -0.23600
H1128       H  0.77858414  0.69777345  0.24474779     0.15380
H1129       H  0.62248680  0.69157355  0.26039376     0.15410
C1130       C  0.65046118  0.77103425  0.26302384    -0.23550
H1131       H  0.78623322  0.62629609  0.24388591     0.05620
H1132       H  0.74295099  0.60012205  0.22014417     0.08850
H1133       H  0.74826090  0.59885322  0.27381458     0.08850
H1134       H  0.65499985  0.79425605  0.23906382     0.08830
H1135       H  0.65914502  0.78536266  0.29171027     0.08830
H1136       H  0.61604000  0.76359205  0.26461449     0.05600
C1137       C  0.71365418  0.77435457  0.16766863    -0.20200
C1138       C  0.75042744  0.77254502  0.19101620    -0.06770
C1139       C  0.78933465  0.76061585  0.17280587     0.14100
C1140       C  0.78931770  0.74751943  0.13293839    -0.20250
C1141       C  0.75146665  0.74534360  0.11132556    -0.06770
C1142       C  0.71344865  0.76021786  0.12843686     0.14090
C1143       C  0.67233821  0.76055713  0.10567765    -0.23600
H1144       H  0.68403671  0.78407656  0.18088455     0.15380
H1145       H  0.81857810  0.73677898  0.11921417     0.15410
C1146       C  0.83074990  0.76051319  0.19490128    -0.23550
H1147       H  0.64607040  0.77495220  0.12309390     0.05620
H1148       H  0.66270270  0.72801850  0.09826687     0.08850
H1149       H  0.67637564  0.77897676  0.07794925     0.08850
H1150       H  0.82836160  0.74181423  0.22243935     0.08830
H1151       H  0.83991699  0.79312124  0.20206280     0.08830
H1152       H  0.85692328  0.74697986  0.17675770     0.05600
C1153       C  0.68072816  0.84235813  0.75985023    -0.20200
C1154       C  0.72467379  0.84338370  0.75296611    -0.06770
C1155       C  0.74583853  0.88248152  0.75364422     0.14100
C1156       C  0.72215000  0.91958052  0.75759060    -0.20250
C1157       C  0.67761654  0.91878748  0.75963101    -0.06770
C1158       C  0.65677181  0.87942778  0.76270812     0.14090
C1159       C  0.60934485  0.87578143  0.76821163    -0.23600
H1160       H  0.66448164  0.81253191  0.75970170     0.15380
H1161       H  0.73845152  0.94949833  0.75636435     0.15410
C1162       C  0.79319016  0.88563446  0.74843503    -0.23550
H1163       H  0.59933436  0.84270378  0.77288233     0.05620
H1164       H  0.59270976  0.88736152  0.74143082     0.08850
H1165       H  0.59914479  0.89407397  0.79460761     0.08850
H1166       H  0.80195237  0.87711437  0.71767707     0.08830
H1167       H  0.80941044  0.86466003  0.76984217     0.08830
H1168       H  0.80475303  0.91809446  0.75356475     0.05600
C1169       C  0.82167310  0.73277714  0.76508900    -0.20200
C1170       C  0.78068285  0.73473170  0.74898593    -0.06770
C1171       C  0.76461563  0.69910646  0.72911582     0.14100
C1172       C  0.78833311  0.66171983  0.72922967    -0.20250
C1173       C  0.82818288  0.65901035  0.74782998    -0.06770
C1174       C  0.84576475  0.69582342  0.76459793     0.14090
C1175       C  0.88917527  0.69672446  0.78327479    -0.23600
H1176       H  0.83459288  0.76036472  0.77928333     0.15380
H1177       H  0.77511208  0.63422762  0.71498711     0.15410
C1178       C  0.72280737  0.69877522  0.70778260    -0.23550
H1179       H  0.89726009  0.72834671  0.79482827     0.05620
H1180       H  0.91372251  0.68832843  0.76088146     0.08850
H1181       H  0.89031032  0.67452451  0.80863857     0.08850
H1182       H  0.70701476  0.72964639  0.70778267     0.08830
H1183       H  0.70120530  0.67545478  0.72173218     0.08830
H1184       H  0.72814661  0.68984889  0.67633768     0.05600
C1185       C  0.77301887  0.78877664  0.83110287    -0.20200
C1186       C  0.74341434  0.77152805  0.80463893    -0.06770
C1187       C  0.71108133  0.74511799  0.81983841     0.14100
C1188       C  0.71238219  0.73240752  0.85949532    -0.20250
C1189       C  0.74449345  0.74613451  0.88485090    -0.06770
C1190       C  0.77426588  0.77597476  0.87105395     0.14090
C1191       C  0.80936806  0.79156878  0.89732285    -0.23600
H1192       H  0.79757031  0.80934555  0.81969922     0.15380
H1193       H  0.68878380  0.71039182  0.87041781     0.15410
C1194       C  0.67531467  0.72865902  0.79499170    -0.23550
H1195       H  0.83080085  0.81360570  0.88136573     0.05620
H1196       H  0.82871067  0.76464489  0.90788567     0.08850
H1197       H  0.79560639  0.80836467  0.92318551     0.08850
H1198       H  0.67520075  0.74225184  0.76495924     0.08830
H1199       H  0.64450274  0.73709205  0.80908223     0.08830
H1200       H  0.67757942  0.69396315  0.79276685     0.05600
C1201       C  0.86185047  0.00928814  0.50489867    -0.20200
C1202       C  0.86611961  0.96558723  0.50786569    -0.06770
C1203       C  0.90725578  0.94823671  0.51296172     0.14100
C1204       C  0.94284204  0.97490767  0.51239187    -0.20250
C1205       C  0.93862446  0.01817964  0.50562054    -0.06770
C1206       C  0.89730302  0.03569943  0.50384335     0.14090
C1207       C  0.88909035  0.08214756  0.50104997    -0.23600
H1208       H  0.83051799  0.02312368  0.50219851     0.15380
H1209       H  0.97426769  0.96148245  0.51500704     0.15410
C1210       C  0.91424670  0.90179347  0.51853872    -0.23550
H1211       H  0.87466301  0.08977087  0.47195649     0.05620
H1212       H  0.91824565  0.10077068  0.50504488     0.08850
H1213       H  0.86679196  0.09177442  0.52501027     0.08850
H1214       H  0.90481880  0.88458498  0.49140205     0.08830
H1215       H  0.89540865  0.89044190  0.54432327     0.08830
H1216       H  0.94815603  0.89432999  0.52416563     0.05600
C1217       C  0.59255471  0.93412432  0.50428855    -0.20200
C1218       C  0.62806034  0.95611401  0.48987269    -0.06770
C1219       C  0.62238658  0.99790841  0.47623932     0.14100
C1220       C  0.58235006  0.01720064  0.48038884    -0.20250
C1221       C  0.54819852  0.99640069  0.49878562    -0.06770
C1222       C  0.55310407  0.95379501  0.50947255     0.14090
C1223       C  0.51758979  0.92915066  0.52819376    -0.23600
H1224       H  0.59619134  0.90188237  0.51397679     0.15380
H1225       H  0.57853663  0.04965513  0.47163527     0.15410
C1226       C  0.65812880  0.02277227  0.45785874    -0.23550
H1227       H  0.52550305  0.89525617  0.53058303     0.05620
H1228       H  0.48841617  0.93197294  0.51010208     0.08850
H1229       H  0.51199217  0.94075534  0.55867141     0.08850
H1230       H  0.67153038  0.00540715  0.43214321     0.08830
H1231       H  0.68328763  0.02851380  0.48009260     0.08830
H1232       H  0.64715630  0.05388687  0.44705152     0.05600
C1233       C  0.78611899  0.81849146  0.63111665    -0.20200
C1234       C  0.74741710  0.82713453  0.61227095    -0.06770
C1235       C  0.70900716  0.81952435  0.63276130     0.14100
C1236       C  0.71035658  0.80708181  0.67250339    -0.20250
C1237       C  0.74894072  0.80292161  0.69298351    -0.06770
C1238       C  0.78747656  0.80630252  0.67126095     0.14090
C1239       C  0.83011066  0.79767318  0.68954390    -0.23600
H1240       H  0.81554061  0.82305467  0.61483753     0.15380
H1241       H  0.68071737  0.80291229  0.68844101     0.15410
C1242       C  0.66637821  0.82482972  0.61314461    -0.23550
H1243       H  0.85636545  0.81062121  0.67112595     0.05620
H1244       H  0.83499389  0.76329091  0.69134503     0.08850
H1245       H  0.83263242  0.81154912  0.71949682     0.08850
H1246       H  0.66514090  0.80546084  0.58583169     0.08830
H1247       H  0.66084828  0.85827253  0.60557012     0.08830
H1248       H  0.63991883  0.81476886  0.63289092     0.05600
C1249       C  0.72044675  0.85502497  0.35379587    -0.20200
C1250       C  0.74152406  0.83058454  0.38208143    -0.06770
C1251       C  0.75899086  0.79143488  0.37061298     0.14100
C1252       C  0.75860371  0.77998561  0.33026118    -0.20250
C1253       C  0.74193549  0.80721957  0.30144551    -0.06770
C1254       C  0.71969359  0.84351451  0.31396401     0.14090
C1255       C  0.69497676  0.87107550  0.28601569    -0.23600
H1256       H  0.70502525  0.88401896  0.36268924     0.15380
H1257       H  0.77438929  0.75142876  0.32089876     0.15410
C1258       C  0.78061061  0.76314102  0.40003702    -0.23550
H1259       H  0.66195037  0.87470617  0.29724601     0.05620
H1260       H  0.69267177  0.85747505  0.25596414     0.08850
H1261       H  0.71001967  0.90253092  0.28410613     0.08850
H1262       H  0.75745518  0.75293105  0.42302314     0.08830
H1263       H  0.80727066  0.78010239  0.41426644     0.08830
H1264       H  0.79372867  0.73454777  0.38564553     0.05600
loop_ 
_geom_bond_atom_site_label_1 
_geom_bond_atom_site_label_2 
_geom_bond_distance 
_geom_bond_site_symmetry_2 
_ccdc_geom_bond_type 
O1            C4   1.267       .  A
O1           Cd6   2.478       .  S
C2           O11   1.263       .  A
C2            O7   1.266       .  A
C2         C1202   1.486       .  S
O3            C9   1.265       .  A
O3           Cd6   2.494       .  S
C4           O12   1.267       .  A
C4         C1218   1.491       .  S
C5           O10   1.266       .  A
C5            O8   1.263       .  A
C5         C1250   1.480       .  S
Cd6          O13   2.440       .  S
Cd6          O12   2.447       .  S
Cd6          O11   2.468       .  S
Cd6           O7   2.466       .  S
Cd6          O10   2.503       .  S
Cd6           O8   2.418       .  S
C9           O13   1.263       .  A
C9         C1234   1.478       .  S
C14          C15   1.364       .  D
C14        C1154   1.496       .  S
C14        C1237   1.500       .  S
C15        C1170   1.492       .  S
C15        C1186   1.496       .  S
C16          C17   1.360       .  D
C16        C1122   1.493       .  S
C16        C1138   1.497       .  S
C17        C1109   1.493       .  S
C17        C1253   1.494       .  S
O18          C21   1.268       .  A
O18         Cd23   2.470       .  S
C19          O28   1.263   1_554  A
C19          O24   1.265       .  A
C19        C1093   1.488       .  S
O20          C26   1.266       .  A
O20         Cd23   2.499       .  S
C21          O29   1.267   1_556  A
C21        C1074   1.483       .  S
C22          O27   1.264       .  A
C22          O25   1.263       .  A
C22        C1141   1.473       .  S
Cd23         O30   2.437       .  S
Cd23         O29   2.423   1_556  S
Cd23         O28   2.399       .  S
Cd23         O24   2.510   1_556  S
Cd23         O27   2.486   1_556  S
Cd23         O25   2.442   1_556  S
C26          O30   1.263       .  A
C26        C1189   1.476       .  S
C31          C32   1.361       .  D
C31        C1026   1.493       .  S
C31        C1058   1.498       .  S
C32        C1010   1.492       .  S
C32        C1042   1.495       .  S
C33          C34   1.366       .  D
C33         C946   1.492       .  S
C33         C994   1.501       .  S
C34         C965   1.497       .  S
C34         C981   1.498       .  S
O35          C38   1.268       .  A
O35         Cd40   2.502       .  S
C36          O45   1.265       .  A
C36          O41   1.268       .  A
C36         C930   1.489       .  S
O37          C43   1.264       .  A
O37         Cd40   2.488       .  S
C38          O46   1.264       .  A
C38         C914   1.489       .  S
C39          O44   1.264       .  A
C39          O42   1.263       .  A
C39        C1045   1.472       .  S
Cd40         O47   2.456       .  S
Cd40         O46   2.414       .  S
Cd40         O45   2.411       .  S
Cd40         O41   2.511       .  S
Cd40         O44   2.486       .  S
Cd40         O42   2.454       .  S
C43          O47   1.264       .  A
C43         C997   1.473       .  S
O48          C51   1.266       .  A
O48         Cd53   2.442       .  S
C49          O58   1.266   1_556  A
C49          O54   1.263       .  A
C49         C901   1.490       .  S
O50          C56   1.267       .  A
O50         Cd53   2.502   1_556  S
C51          O59   1.266       .  A
C51         C882   1.485       .  S
C52          O57   1.267       .  A
C52          O55   1.264       .  A
C52        C1061   1.483       .  S
Cd53         O60   2.416   1_554  S
Cd53         O59   2.475       .  S
Cd53         O58   2.455       .  S
Cd53         O54   2.474   1_554  S
Cd53         O57   2.502       .  S
Cd53         O55   2.415       .  S
C56          O60   1.262       .  A
C56         C978   1.482       .  S
O61          C64   1.263       .  A
O61         Cd66   2.443       .  S
C62          O71   1.264       .  A
C62          O67   1.265       .  A
C62        C1173   1.489       .  S
O63          C69   1.267       .  A
O63         Cd66   2.491       .  S
C64          O72   1.267       .  A
C64         C949   1.485       .  S
C65          O70   1.267       .  A
C65          O68   1.262       .  A
C65         C866   1.483       .  S
Cd66         O73   2.432       .  S
Cd66         O72   2.478       .  S
Cd66         O71   2.453       .  S
Cd66         O67   2.469       .  S
Cd66         O70   2.498       .  S
Cd66         O68   2.424       .  S
C69          O73   1.263       .  A
C69         C850   1.483       .  S
O74          C77   1.267       .  A
O74         Cd79   2.470       .  S
C75          O84   1.265       .  A
C75          O80   1.267       .  A
C75         C789   1.490       .  S
O76          C82   1.264       .  A
O76         Cd79   2.487       .  S
C77          O85   1.266       .  A
C77         C805   1.493       .  S
C78          O83   1.266       .  A
C78          O81   1.263       .  A
C78         C818   1.480       .  S
Cd79         O86   2.458       .  S
Cd79         O85   2.457       .  S
Cd79         O84   2.434       .  S
Cd79         O80   2.492       .  S
Cd79         O83   2.486       .  S
Cd79         O81   2.455       .  S
C82          O86   1.263       .  A
C82         C834   1.478       .  S
C87          C88   1.371   1_656  D
C87         C853   1.503       .  S
C87        C1090   1.489   1_556  S
C88         C770   1.493   1_554  S
C88         C821   1.521       .  S
C89          C90   1.367   1_655  D
C89         C869   1.499       .  S
C89         C933   1.496       .  S
C90         C754   1.497       .  S
C90         C837   1.504       .  S
C91          C92   1.358   1_554  D
C91         C738   1.494       .  S
C91        C1077   1.493       .  S
C92         C706   1.488   1_556  S
C92         C722   1.494       .  S
O93          C96   1.265       .  A
O93         Cd98   2.453       .  S
C94         O103   1.265       .  A
C94          O99   1.266       .  A
C94         C658   1.488       .  S
O95         C101   1.267       .  A
O95         Cd98   2.505       .  S
C96         O104   1.268       .  A
C96         C674   1.487       .  S
C97         O102   1.266       .  A
C97         O100   1.262       .  A
C97         C725   1.479       .  S
Cd98        O105   2.425       .  S
Cd98        O104   2.472       .  S
Cd98        O103   2.462       .  S
Cd98         O99   2.463       .  S
Cd98        O102   2.495       .  S
Cd98        O100   2.436       .  S
C101        O105   1.262       .  A
C101        C690   1.483       .  S
C106        C107   1.367       .  D
C106        C642   1.498       .  S
C106        C917   1.501       .  S
C107        C626   1.498       .  S
C107        C693   1.499       .  S
O108        C111   1.262       .  A
O108       Cd113   2.447       .  S
C109        O118   1.267       .  A
C109        O114   1.263       .  A
C109       C1013   1.487       .  S
O110        C116   1.267       .  A
O110       Cd113   2.490       .  S
C111        O119   1.266       .  A
C111       C1125   1.486       .  S
C112        O117   1.266       .  A
C112        O115   1.264       .  A
C112        C741   1.484       .  S
Cd113       O120   2.429       .  S
Cd113       O119   2.474       .  S
Cd113       O118   2.467       .  S
Cd113       O114   2.451       .  S
Cd113       O117   2.489       .  S
Cd113       O115   2.434       .  S
C116        O120   1.262       .  A
C116        C645   1.483       .  S
C121        C122   1.365       .  D
C121        C594   1.497       .  S
C121        C661   1.501       .  S
C122        C578   1.502       .  S
C122        C610   1.497       .  S
O123        C126   1.267       .  A
O123       Cd128   2.455       .  S
C124        O133   1.266       .  A
C124        O129   1.265       .  A
C124        C530   1.491       .  S
O125        C131   1.266       .  A
O125       Cd128   2.486       .  S
C126        O134   1.266       .  A
C126        C546   1.484       .  S
C127        O132   1.266       .  A
C127        O130   1.261       .  A
C127        C562   1.479       .  S
Cd128       O135   2.446       .  S
Cd128       O134   2.465       .  S
Cd128       O133   2.453       .  S
Cd128       O129   2.476       .  S
Cd128       O132   2.490       .  S
Cd128       O130   2.441       .  S
C131        O135   1.262       .  A
C131        C613   1.477       .  S
C136        C137   1.364       .  D
C136        C514   1.499       .  S
C136        C786   1.498       .  S
C137        C498   1.493       .  S
C137        C565   1.494       .  S
O138        C141   1.264   1_554  A
O138       Cd143   2.447   1_554  S
C139        O148   1.269   1_556  A
C139        O144   1.265       .  A
C139        C773   1.481       .  S
O140        C146   1.267       .  A
O140       Cd143   2.488       .  S
C141        O149   1.264       .  A
C141        C709   1.488   1_556  S
C142        O147   1.268       .  A
C142        O145   1.260       .  A
C142        C517   1.485       .  S
Cd143       O150   2.434       .  S
Cd143       O149   2.470       .  S
Cd143       O148   2.452   1_556  S
Cd143       O144   2.440       .  S
Cd143       O147   2.510   1_556  S
Cd143       O145   2.416   1_556  S
C146        O150   1.261       .  A
C146        C597   1.476       .  S
O151        C154   1.267       .  A
O151       Cd156   2.482   1_565  S
C152        O161   1.267       .  A
C152        O157   1.268       .  A
C152        C962   1.487       .  S
O153        C159   1.267       .  A
O153       Cd156   2.490       .  S
C154        O162   1.262       .  A
C154       C1157   1.486       .  S
C155        O160   1.265       .  A
C155        O158   1.264       .  A
C155        C466   1.477       .  S
Cd156       O163   2.430       .  S
Cd156       O162   2.444   1_545  S
Cd156       O161   2.426       .  S
Cd156       O157   2.488       .  S
Cd156       O160   2.493       .  S
Cd156       O158   2.440       .  S
C159        O163   1.263       .  A
C159        C482   1.480       .  S
O164        C167   1.263       .  A
O164       Cd169   2.459       .  S
C165        O174   1.268       .  A
C165        O170   1.265       .  A
C165        C418   1.489       .  S
O166        C172   1.268       .  A
O166       Cd169   2.506       .  S
C167        O175   1.266       .  A
C167        C501   1.487       .  S
C168        O173   1.267       .  A
C168        O171   1.261       .  A
C168        C450   1.479       .  S
Cd169       O176   2.433       .  S
Cd169       O175   2.474       .  S
Cd169       O174   2.444   1_545  S
Cd169       O170   2.471   1_545  S
Cd169       O173   2.503       .  S
Cd169       O171   2.437       .  S
C172        O176   1.262       .  A
C172        C434   1.485       .  S
C177        C178   1.366   1_556  D
C177        C469   1.501       .  S
C177        C885   1.494   1_556  S
C178        C402   1.492       .  S
C178        C437   1.500       .  S
C179        C180   1.361       .  D
C179        C453   1.494       .  S
C179        C549   1.492       .  S
C180        C485   1.498       .  S
C180       C1221   1.498   1_545  S
C181        C182   1.361       .  D
C181        C370   1.496       .  S
C181        C802   1.497       .  S
C182        C389   1.492       .  S
C182        C421   1.494       .  S
O183        C186   1.267       .  A
O183       Cd188   2.463       .  S
C184        O193   1.266       .  A
C184        O189   1.266       .  A
C184        C629   1.491       .  S
O185        C191   1.263       .  A
O185       Cd188   2.489       .  S
C186        O194   1.264       .  A
C186        C757   1.489       .  S
C187        O192   1.263       .  A
C187        O190   1.262       .  A
C187        C354   1.469       .  S
Cd188       O195   2.445       .  S
Cd188       O194   2.463       .  S
Cd188       O193   2.462       .  S
Cd188       O189   2.455       .  S
Cd188       O192   2.479       .  S
Cd188       O190   2.440       .  S
C191        O195   1.262       .  A
C191        C373   1.474       .  S
C196        C197   1.364       .  D
C196        C357   1.492       .  S
C196        C677   1.495       .  S
C197        C322   1.495       .  S
C197        C338   1.494       .  S
O198        C201   1.262       .  A
O198       Cd203   2.433   1_554  S
C199        O208   1.264   1_556  A
C199        O204   1.265       .  A
C199        C405   1.488       .  S
O200        C206   1.266       .  A
O200       Cd203   2.494   1_554  S
C201        O209   1.267   1_554  A
C201        C309   1.489       .  S
C202        O207   1.267       .  A
C202        O205   1.262       .  A
C202        C341   1.480       .  S
Cd203       O210   2.411   1_556  S
Cd203       O209   2.482       .  S
Cd203       O208   2.444   1_556  S
Cd203       O204   2.471       .  S
Cd203       O207   2.491       .  S
Cd203       O205   2.413       .  S
C206        O210   1.264       .  A
C206        C386   1.481       .  S
O211        C214   1.264       .  A
O211       Cd216   2.483   1_565  S
C212        O221   1.265       .  A
C212        O217   1.267       .  A
C212        C581   1.486       .  S
O213        C219   1.267       .  A
O213       Cd216   2.492       .  S
C214        O222   1.266       .  A
C214        C325   1.491       .  S
C215        O220   1.268       .  A
C215        O218   1.264       .  A
C215        C274   1.486       .  S
Cd216       O223   2.444       .  S
Cd216       O222   2.447   1_545  S
Cd216       O221   2.454       .  S
Cd216       O217   2.461       .  S
Cd216       O220   2.500       .  S
Cd216       O218   2.442       .  S
C219        O223   1.262       .  A
C219        C290   1.484       .  S
O224        C227   1.266       .  A
O224       Cd229   2.470       .  S
C225        O234   1.266       .  A
C225        O230   1.264       .  A
C225       C1106   1.487       .  S
O226        C232   1.268       .  A
O226       Cd229   2.503       .  S
C227        O235   1.267       .  A
C227       C1029   1.486       .  S
C228        O233   1.268       .  A
C228        O231   1.262       .  A
C228        C261   1.478       .  S
Cd229       O236   2.427       .  S
Cd229       O235   2.442       .  S
Cd229       O234   2.447   1_545  S
Cd229       O230   2.477   1_545  S
Cd229       O233   2.503       .  S
Cd229       O231   2.432       .  S
C232        O236   1.262       .  A
C232        C242   1.485       .  S
C237        C238   1.369   1_654  D
C237        C245   1.501       .  S
C237        C898   1.500       .  S
C238        C277   1.502       .  S
C238        C306   1.496   1_556  S
C239        C240   1.364   1_655  D
C239        C258   1.498       .  S
C239       C1205   1.494       .  S
C240        C293   1.502       .  S
C240        C533   1.499       .  S
C241        C242   1.404       .  A
C241        C246   1.409   1_655  A
C241        H248   1.084   1_655  S
C242        C243   1.416       .  A
C243        C244   1.400       .  A
C243        C250   1.510   1_545  S
C244        C245   1.404       .  A
C244        H249   1.083       .  S
C245        C246   1.417   1_655  A
C246        C247   1.504       .  S
C247        H251   1.111       .  S
C247        H252   1.106       .  S
C247        H253   1.107       .  S
C250        H254   1.109   1_565  S
C250        H255   1.111       .  S
C250        H256   1.111       .  S
C257        C258   1.403       .  A
C257        C262   1.403       .  A
C257        H264   1.077       .  S
C258        C259   1.419       .  A
C259        C260   1.405       .  A
C259        C266   1.505   1_645  S
C260        C261   1.400       .  A
C260        H265   1.084   1_545  S
C261        C262   1.414       .  A
C262        C263   1.509       .  S
C263        H267   1.111       .  S
C263        H268   1.109       .  S
C263        H269   1.110       .  S
C266        H270   1.105       .  S
C266        H271   1.110       .  S
C266        H272   1.110   1_455  S
C273        C274   1.403       .  A
C273        C278   1.402       .  A
C273        H280   1.085       .  S
C274        C275   1.414       .  A
C275        C276   1.408       .  A
C275        C282   1.506   1_445  S
C276        C277   1.406       .  A
C276        H281   1.077   1_455  S
C277        C278   1.416       .  A
C278        C279   1.502       .  S
C279        H283   1.110       .  S
C279        H284   1.111       .  S
C279        H285   1.102       .  S
C282        H286   1.110   1_655  S
C282        H287   1.110   1_565  S
C282        H288   1.111       .  S
C289        C290   1.402       .  A
C289        C294   1.406   1_455  A
C289        H296   1.084   1_455  S
C290        C291   1.416       .  A
C291        C292   1.403       .  A
C291        C298   1.509   1_545  S
C292        C293   1.405       .  A
C292        H297   1.081   1_545  S
C293        C294   1.417   1_455  A
C294        C295   1.501       .  S
C295        H299   1.111       .  S
C295        H300   1.106       .  S
C295        H301   1.099       .  S
C298        H302   1.110       .  S
C298        H303   1.109       .  S
C298        H304   1.111       .  S
C305        C306   1.401       .  A
C305        C310   1.399       .  A
C305        H312   1.076       .  S
C306        C307   1.415   1_545  A
C307        C308   1.407       .  A
C307        C314   1.505   1_554  S
C308        C309   1.407       .  A
C308        H313   1.083       .  S
C309        C310   1.418   1_565  A
C310        C311   1.510       .  S
C311        H315   1.111       .  S
C311        H316   1.110   1_554  S
C311        H317   1.110       .  S
C314        H318   1.101   1_455  S
C314        H319   1.106   1_456  S
C314        H320   1.111   1_556  S
C321        C322   1.404       .  A
C321        C326   1.409       .  A
C321        H328   1.084       .  S
C322        C323   1.414       .  A
C323        C324   1.396       .  A
C323        C330   1.504       .  S
C324        C325   1.403       .  A
C324        H329   1.084       .  S
C325        C326   1.422       .  A
C326        C327   1.507       .  S
C327        H331   1.111       .  S
C327        H332   1.110       .  S
C327        H333   1.110       .  S
C330        H334   1.102       .  S
C330        H335   1.111       .  S
C330        H336   1.110       .  S
C337        C338   1.404       .  A
C337        C342   1.396       .  A
C337        H344   1.083       .  S
C338        C339   1.416       .  A
C339        C340   1.406       .  A
C339        C346   1.503       .  S
C340        C341   1.405       .  A
C340        H345   1.084       .  S
C341        C342   1.415       .  A
C342        C343   1.510       .  S
C343        H347   1.111       .  S
C343        H348   1.110       .  S
C343        H349   1.109       .  S
C346        H350   1.102       .  S
C346        H351   1.110       .  S
C346        H352   1.110       .  S
C353        C354   1.401       .  A
C353        C358   1.406       .  A
C353        H360   1.084       .  S
C354        C355   1.408       .  A
C355        C356   1.399       .  A
C355        C362   1.508       .  S
C356        C357   1.405       .  A
C356        H361   1.080       .  S
C357        C358   1.416       .  A
C358        C359   1.505       .  S
C359        H363   1.111       .  S
C359        H364   1.105       .  S
C359        H365   1.106       .  S
C362        H366   1.110       .  S
C362        H367   1.109       .  S
C362        H368   1.111       .  S
C369        C370   1.405       .  A
C369        C374   1.399       .  A
C369        H376   1.077       .  S
C370        C371   1.418       .  A
C371        C372   1.408       .  A
C371        C378   1.506       .  S
C372        C373   1.403       .  A
C372        H377   1.084       .  S
C373        C374   1.409       .  A
C374        C375   1.509       .  S
C375        H379   1.111       .  S
C375        H380   1.110       .  S
C375        H381   1.109       .  S
C378        H382   1.105       .  S
C378        H383   1.105       .  S
C378        H384   1.111       .  S
C385        C386   1.401       .  A
C385        C390   1.393       .  A
C385        H392   1.085       .  S
C386        C387   1.417       .  A
C387        C388   1.409       .  A
C387        C394   1.505       .  S
C388        C389   1.405       .  A
C388        H393   1.083       .  S
C389        C390   1.415       .  A
C390        C391   1.507       .  S
C391        H395   1.111       .  S
C391        H396   1.110       .  S
C391        H397   1.105       .  S
C394        H398   1.110       .  S
C394        H399   1.110       .  S
C394        H400   1.111       .  S
C401        C402   1.403   1_565  A
C401        C406   1.397       .  A
C401        H408   1.078       .  S
C402        C403   1.415   1_554  A
C403        C404   1.408   1_545  A
C403        C410   1.507       .  S
C404        C405   1.409       .  A
C404        H409   1.083   1_565  S
C405        C406   1.416   1_556  A
C406        C407   1.509       .  S
C407        H411   1.111       .  S
C407        H412   1.110       .  S
C407        H413   1.110       .  S
C410        H414   1.106       .  S
C410        H415   1.106       .  S
C410        H416   1.111       .  S
C417        C418   1.402       .  A
C417        C422   1.395       .  A
C417        H424   1.084       .  S
C418        C419   1.422       .  A
C419        C420   1.409       .  A
C419        C426   1.507       .  S
C420        C421   1.403       .  A
C420        H425   1.083       .  S
C421        C422   1.415       .  A
C422        C423   1.506       .  S
C423        H427   1.110       .  S
C423        H428   1.106       .  S
C423        H429   1.111       .  S
C426        H430   1.110       .  S
C426        H431   1.110       .  S
C426        H432   1.111       .  S
C433        C434   1.405       .  A
C433        C438   1.409       .  A
C433        H440   1.084       .  S
C434        C435   1.416       .  A
C435        C436   1.400       .  A
C435        C442   1.510       .  S
C436        C437   1.403       .  A
C436        H441   1.080       .  S
C437        C438   1.417       .  A
C438        C439   1.504   1_545  S
C439        H443   1.111       .  S
C439        H444   1.107   1_565  S
C439        H445   1.105       .  S
C442        H446   1.110       .  S
C442        H447   1.109       .  S
C442        H448   1.111       .  S
C449        C450   1.400       .  A
C449        C454   1.402       .  A
C449        H456   1.084       .  S
C450        C451   1.417   1_545  A
C451        C452   1.405       .  A
C451        C458   1.508       .  S
C452        C453   1.401   1_565  A
C452        H457   1.081       .  S
C453        C454   1.416       .  A
C454        C455   1.505       .  S
C455        H459   1.110       .  S
C455        H460   1.110       .  S
C455        H461   1.107       .  S
C458        H462   1.110       .  S
C458        H463   1.109       .  S
C458        H464   1.111       .  S
C465        C466   1.404       .  A
C465        C470   1.410   1_545  A
C465        H472   1.084   1_545  S
C466        C467   1.409       .  A
C467        C468   1.398       .  A
C467        C474   1.509       .  S
C468        C469   1.408       .  A
C468        H473   1.083       .  S
C469        C470   1.419   1_545  A
C470        C471   1.506       .  S
C471        H475   1.111       .  S
C471        H476   1.107       .  S
C471        H477   1.108       .  S
C474        H478   1.110       .  S
C474        H479   1.109       .  S
C474        H480   1.111       .  S
C481        C482   1.403       .  A
C481        C486   1.408       .  A
C481        H488   1.084       .  S
C482        C483   1.414       .  A
C483        C484   1.399       .  A
C483        C490   1.509       .  S
C484        C485   1.404       .  A
C484        H489   1.083       .  S
C485        C486   1.418       .  A
C486        C487   1.505       .  S
C487        H491   1.111   1_545  S
C487        H492   1.103   1_545  S
C487        H493   1.106       .  S
C490        H494   1.109       .  S
C490        H495   1.110       .  S
C490        H496   1.111       .  S
C497        C498   1.406       .  A
C497        C502   1.401       .  A
C497        H504   1.082       .  S
C498        C499   1.414       .  A
C499        C500   1.405       .  A
C499        C506   1.503       .  S
C500        C501   1.407       .  A
C500        H505   1.084       .  S
C501        C502   1.416       .  A
C502        C503   1.508       .  S
C503        H507   1.111       .  S
C503        H508   1.110       .  S
C503        H509   1.110       .  S
C506        H510   1.110       .  S
C506        H511   1.102       .  S
C506        H512   1.110       .  S
C513        C514   1.403       .  A
C513        C518   1.398       .  A
C513        H520   1.083       .  S
C514        C515   1.418       .  A
C515        C516   1.410       .  A
C515        C522   1.505       .  S
C516        C517   1.405       .  A
C516        H521   1.084       .  S
C517        C518   1.417       .  A
C518        C519   1.510       .  S
C519        H523   1.111       .  S
C519        H524   1.109       .  S
C519        H525   1.111       .  S
C522        H526   1.106       .  S
C522        H527   1.107       .  S
C522        H528   1.111       .  S
C529        C530   1.405       .  A
C529        C534   1.400       .  A
C529        H536   1.084       .  S
C530        C531   1.419       .  A
C531        C532   1.406       .  A
C531        C538   1.507       .  S
C532        C533   1.405       .  A
C532        H537   1.080       .  S
C533        C534   1.412       .  A
C534        C535   1.501       .  S
C535        H539   1.111       .  S
C535        H540   1.110       .  S
C535        H541   1.100   1_455  S
C538        H542   1.110       .  S
C538        H543   1.110       .  S
C538        H544   1.111       .  S
C545        C546   1.401       .  A
C545        C550   1.398       .  A
C545        H552   1.084       .  S
C546        C547   1.419       .  A
C547        C548   1.408       .  A
C547        C554   1.507       .  S
C548        C549   1.403       .  A
C548        H553   1.082       .  S
C549        C550   1.417       .  A
C550        C551   1.506   1_545  S
C551        H555   1.110       .  S
C551        H556   1.111       .  S
C551        H557   1.103       .  S
C554        H558   1.111       .  S
C554        H559   1.110       .  S
C554        H560   1.111       .  S
C561        C562   1.400       .  A
C561        C566   1.401       .  A
C561        H568   1.084       .  S
C562        C563   1.416       .  A
C563        C564   1.404       .  A
C563        C570   1.508       .  S
C564        C565   1.403       .  A
C564        H569   1.082       .  S
C565        C566   1.416       .  A
C566        C567   1.502       .  S
C567        H571   1.110       .  S
C567        H572   1.110       .  S
C567        H573   1.101       .  S
C570        H574   1.110       .  S
C570        H575   1.109       .  S
C570        H576   1.111       .  S
C577        C578   1.404       .  A
C577        C582   1.404       .  A
C577        H584   1.077       .  S
C578        C579   1.417       .  A
C579        C580   1.403       .  A
C579        C586   1.504       .  S
C580        C581   1.402       .  A
C580        H585   1.083       .  S
C581        C582   1.417       .  A
C582        C583   1.508       .  S
C583        H587   1.111       .  S
C583        H588   1.110       .  S
C583        H589   1.110       .  S
C586        H590   1.104       .  S
C586        H591   1.100       .  S
C586        H592   1.111       .  S
C593        C594   1.403       .  A
C593        C598   1.403       .  A
C593        H600   1.079       .  S
C594        C595   1.419       .  A
C595        C596   1.401       .  A
C595        C602   1.502       .  S
C596        C597   1.399       .  A
C596        H601   1.085       .  S
C597        C598   1.414       .  A
C598        C599   1.508       .  S
C599        H603   1.111       .  S
C599        H604   1.109       .  S
C599        H605   1.110       .  S
C602        H606   1.110       .  S
C602        H607   1.101       .  S
C602        H608   1.111       .  S
C609        C610   1.403       .  A
C609        C614   1.405       .  A
C609        H616   1.081       .  S
C610        C611   1.418       .  A
C611        C612   1.401       .  A
C611        C618   1.503       .  S
C612        C613   1.399       .  A
C612        H617   1.085       .  S
C613        C614   1.415       .  A
C614        C615   1.508       .  S
C615        H619   1.111       .  S
C615        H620   1.110       .  S
C615        H621   1.109       .  S
C618        H622   1.103       .  S
C618        H623   1.110       .  S
C618        H624   1.111       .  S
C625        C626   1.403       .  A
C625        C630   1.400       .  A
C625        H632   1.075       .  S
C626        C627   1.415       .  A
C627        C628   1.407       .  A
C627        C634   1.506       .  S
C628        C629   1.408       .  A
C628        H633   1.083       .  S
C629        C630   1.416       .  A
C630        C631   1.509       .  S
C631        H635   1.111       .  S
C631        H636   1.110       .  S
C631        H637   1.110       .  S
C634        H638   1.105       .  S
C634        H639   1.102       .  S
C634        H640   1.111       .  S
C641        C642   1.404       .  A
C641        C646   1.399       .  A
C641        H648   1.083       .  S
C642        C643   1.417       .  A
C643        C644   1.407       .  A
C643        C650   1.504       .  S
C644        C645   1.404       .  A
C644        H649   1.084       .  S
C645        C646   1.415       .  A
C646        C647   1.509       .  S
C647        H651   1.111       .  S
C647        H652   1.111       .  S
C647        H653   1.109       .  S
C650        H654   1.106       .  S
C650        H655   1.106       .  S
C650        H656   1.111       .  S
C657        C658   1.403       .  A
C657        C662   1.403       .  A
C657        H664   1.083       .  S
C658        C659   1.418       .  A
C659        C660   1.405       .  A
C659        C666   1.508       .  S
C660        C661   1.403       .  A
C660        H665   1.078       .  S
C661        C662   1.416       .  A
C662        C663   1.503       .  S
C663        H667   1.111       .  S
C663        H668   1.100       .  S
C663        H669   1.106       .  S
C666        H670   1.110       .  S
C666        H671   1.110       .  S
C666        H672   1.111       .  S
C673        C674   1.406       .  A
C673        C678   1.405       .  A
C673        H680   1.084       .  S
C674        C675   1.416       .  A
C675        C676   1.401       .  A
C675        C682   1.509       .  S
C676        C677   1.404       .  A
C676        H681   1.080       .  S
C677        C678   1.416       .  A
C678        C679   1.505       .  S
C679        H683   1.111       .  S
C679        H684   1.110       .  S
C679        H685   1.104       .  S
C682        H686   1.110       .  S
C682        H687   1.110       .  S
C682        H688   1.111       .  S
C689        C690   1.403       .  A
C689        C694   1.399       .  A
C689        H696   1.085       .  S
C690        C691   1.413       .  A
C691        C692   1.407       .  A
C691        C698   1.506       .  S
C692        C693   1.406       .  A
C692        H697   1.077       .  S
C693        C694   1.415       .  A
C694        C695   1.502       .  S
C695        H699   1.110       .  S
C695        H700   1.101       .  S
C695        H701   1.111       .  S
C698        H702   1.110       .  S
C698        H703   1.110       .  S
C698        H704   1.111       .  S
C705        C706   1.402   1_556  A
C705        C710   1.405       .  A
C705        H712   1.083       .  S
C706        C707   1.411       .  A
C707        C708   1.398       .  A
C707        C714   1.504       .  S
C708        C709   1.405       .  A
C708        H713   1.084       .  S
C709        C710   1.420   1_554  A
C710        C711   1.507       .  S
C711        H715   1.111       .  S
C711        H716   1.110       .  S
C711        H717   1.110   1_556  S
C714        H718   1.110   1_554  S
C714        H719   1.101       .  S
C714        H720   1.111       .  S
C721        C722   1.407       .  A
C721        C726   1.404       .  A
C721        H728   1.082       .  S
C722        C723   1.413       .  A
C723        C724   1.401       .  A
C723        C730   1.501       .  S
C724        C725   1.403       .  A
C724        H729   1.085       .  S
C725        C726   1.412       .  A
C726        C727   1.507       .  S
C727        H731   1.111       .  S
C727        H732   1.110       .  S
C727        H733   1.110       .  S
C730        H734   1.110       .  S
C730        H735   1.100       .  S
C730        H736   1.110       .  S
C737        C738   1.404       .  A
C737        C742   1.408       .  A
C737        H744   1.080       .  S
C738        C739   1.412       .  A
C739        C740   1.397       .  A
C739        C746   1.505       .  S
C740        C741   1.404       .  A
C740        H745   1.084       .  S
C741        C742   1.417       .  A
C742        C743   1.506       .  S
C743        H747   1.111       .  S
C743        H748   1.110       .  S
C743        H749   1.110       .  S
C746        H750   1.110       .  S
C746        H751   1.108       .  S
C746        H752   1.110       .  S
C753        C754   1.404       .  A
C753        C758   1.407       .  A
C753        H760   1.083       .  S
C754        C755   1.415       .  A
C755        C756   1.400       .  A
C755        C762   1.506       .  S
C756        C757   1.403       .  A
C756        H761   1.083       .  S
C757        C758   1.420       .  A
C758        C759   1.507       .  S
C759        H763   1.111       .  S
C759        H764   1.109       .  S
C759        H765   1.111       .  S
C762        H766   1.105       .  S
C762        H767   1.108       .  S
C762        H768   1.110       .  S
C769        C770   1.402       .  A
C769        C774   1.399       .  A
C769        H776   1.084   1_556  S
C770        C771   1.416       .  A
C771        C772   1.404       .  A
C771        C778   1.507       .  S
C772        C773   1.405       .  A
C772        H777   1.084       .  S
C773        C774   1.416       .  A
C774        C775   1.508       .  S
C775        H779   1.111   1_556  S
C775        H780   1.110       .  S
C775        H781   1.110   1_556  S
C778        H782   1.105       .  S
C778        H783   1.109   1_456  S
C778        H784   1.111       .  S
C785        C786   1.405       .  A
C785        C790   1.407       .  A
C785        H792   1.080       .  S
C786        C787   1.412       .  A
C787        C788   1.400       .  A
C787        C794   1.504       .  S
C788        C789   1.405       .  A
C788        H793   1.083       .  S
C789        C790   1.418       .  A
C790        C791   1.507       .  S
C791        H795   1.111       .  S
C791        H796   1.110       .  S
C791        H797   1.109       .  S
C794        H798   1.108       .  S
C794        H799   1.106       .  S
C794        H800   1.111       .  S
C801        C802   1.403       .  A
C801        C806   1.403       .  A
C801        H808   1.080       .  S
C802        C803   1.415       .  A
C803        C804   1.406       .  A
C803        C810   1.507       .  S
C804        C805   1.408       .  A
C804        H809   1.083       .  S
C805        C806   1.418       .  A
C806        C807   1.508       .  S
C807        H811   1.111       .  S
C807        H812   1.110       .  S
C807        H813   1.110       .  S
C810        H814   1.106       .  S
C810        H815   1.104       .  S
C810        H816   1.110       .  S
C817        C818   1.399       .  A
C817        C822   1.410       .  A
C817        H824   1.084       .  S
C818        C819   1.408       .  A
C819        C820   1.402       .  A
C819        C826   1.509       .  S
C820        C821   1.415       .  A
C820        H825   1.079       .  S
C821        C822   1.426       .  A
C822        C823   1.499       .  S
C823        H827   1.111       .  S
C823        H828   1.104   1_455  S
C823        H829   1.105       .  S
C826        H830   1.110       .  S
C826        H831   1.110       .  S
C826        H832   1.111       .  S
C833        C834   1.403       .  A
C833        C838   1.408       .  A
C833        H840   1.084       .  S
C834        C835   1.409       .  A
C835        C836   1.401       .  A
C835        C842   1.508       .  S
C836        C837   1.409       .  A
C836        H841   1.083       .  S
C837        C838   1.419       .  A
C838        C839   1.504       .  S
C839        H843   1.110       .  S
C839        H844   1.105   1_455  S
C839        H845   1.105       .  S
C842        H846   1.110       .  S
C842        H847   1.109       .  S
C842        H848   1.111       .  S
C849        C850   1.404       .  A
C849        C854   1.407   1_655  A
C849        H856   1.084   1_655  S
C850        C851   1.414       .  A
C851        C852   1.399       .  A
C851        C858   1.509       .  S
C852        C853   1.407       .  A
C852        H857   1.083       .  S
C853        C854   1.420   1_655  A
C854        C855   1.503       .  S
C855        H859   1.111       .  S
C855        H860   1.110       .  S
C855        H861   1.099       .  S
C858        H862   1.111       .  S
C858        H863   1.109       .  S
C858        H864   1.111       .  S
C865        C866   1.405       .  A
C865        C870   1.408   1_655  A
C865        H872   1.084   1_655  S
C866        C867   1.416       .  A
C867        C868   1.398       .  A
C867        C874   1.510       .  S
C868        C869   1.403       .  A
C868        H873   1.084       .  S
C869        C870   1.416   1_655  A
C870        C871   1.505       .  S
C871        H875   1.111       .  S
C871        H876   1.107       .  S
C871        H877   1.104       .  S
C874        H878   1.110       .  S
C874        H879   1.109       .  S
C874        H880   1.111       .  S
C881        C882   1.402       .  A
C881        C886   1.398   1_554  A
C881        H888   1.084   1_554  S
C882        C883   1.418       .  A
C883        C884   1.407       .  A
C883        C890   1.506       .  S
C884        C885   1.404       .  A
C884        H889   1.083       .  S
C885        C886   1.416   1_554  A
C886        C887   1.507   1_545  S
C887        H891   1.111       .  S
C887        H892   1.105       .  S
C887        H893   1.107   1_556  S
C890        H894   1.109       .  S
C890        H895   1.110       .  S
C890        H896   1.111       .  S
C897        C898   1.405   1_556  A
C897        C902   1.407       .  A
C897        H904   1.081       .  S
C898        C899   1.417       .  A
C899        C900   1.400       .  A
C899        C906   1.504       .  S
C900        C901   1.402   1_554  A
C900        H905   1.083       .  S
C901        C902   1.419       .  A
C902        C903   1.507       .  S
C903        H907   1.111       .  S
C903        H908   1.110       .  S
C903        H909   1.110       .  S
C906        H910   1.103   1_655  S
C906        H911   1.104       .  S
C906        H912   1.111       .  S
C913        C914   1.402       .  A
C913        C918   1.398       .  A
C913        H920   1.083       .  S
C914        C915   1.416       .  A
C915        C916   1.409       .  A
C915        C922   1.506       .  S
C916        C917   1.408       .  A
C916        H921   1.082       .  S
C917        C918   1.417       .  A
C918        C919   1.505       .  S
C919        H923   1.111       .  S
C919        H924   1.104       .  S
C919        H925   1.102       .  S
C922        H926   1.110       .  S
C922        H927   1.110       .  S
C922        H928   1.111       .  S
C929        C930   1.402       .  A
C929        C934   1.395       .  A
C929        H936   1.084       .  S
C930        C931   1.419       .  A
C931        C932   1.412       .  A
C931        C938   1.506       .  S
C932        C933   1.407       .  A
C932        H937   1.084       .  S
C933        C934   1.416       .  A
C934        C935   1.506       .  S
C935        H939   1.111       .  S
C935        H940   1.104       .  S
C935        H941   1.106   1_655  S
C938        H942   1.110       .  S
C938        H943   1.110       .  S
C938        H944   1.111       .  S
C945        C946   1.403       .  A
C945        C950   1.399       .  A
C945        H952   1.080       .  S
C946        C947   1.415       .  A
C947        C948   1.407       .  A
C947        C954   1.507       .  S
C948        C949   1.407       .  A
C948        H953   1.083       .  S
C949        C950   1.416       .  A
C950        C951   1.509       .  S
C951        H955   1.111       .  S
C951        H956   1.110       .  S
C951        H957   1.110       .  S
C954        H958   1.107       .  S
C954        H959   1.106       .  S
C954        H960   1.111       .  S
C961        C962   1.401       .  A
C961        C966   1.397       .  A
C961        H968   1.084       .  S
C962        C963   1.418       .  A
C963        C964   1.410       .  A
C963        C970   1.506       .  S
C964        C965   1.406       .  A
C964        H969   1.084       .  S
C965        C966   1.417       .  A
C966        C967   1.507       .  S
C967        H971   1.111       .  S
C967        H972   1.106       .  S
C967        H973   1.104       .  S
C970        H974   1.110       .  S
C970        H975   1.109       .  S
C970        H976   1.111       .  S
C977        C978   1.405       .  A
C977        C982   1.410       .  A
C977        H984   1.084       .  S
C978        C979   1.415       .  A
C979        C980   1.397       .  A
C979        C986   1.510       .  S
C980        C981   1.404       .  A
C980        H985   1.084       .  S
C981        C982   1.417       .  A
C982        C983   1.505       .  S
C983        H987   1.111       .  S
C983        H988   1.107       .  S
C983        H989   1.106       .  S
C986        H990   1.109       .  S
C986        H991   1.110       .  S
C986        H992   1.111       .  S
C993        C994   1.408       .  A
C993        C998   1.401       .  A
C993       H1000   1.079       .  S
C994        C995   1.419       .  A
C995        C996   1.408       .  A
C995       C1002   1.504       .  S
C996        C997   1.401       .  A
C996       H1001   1.084       .  S
C997        C998   1.407       .  A
C998        C999   1.508       .  S
C999       H1003   1.111       .  S
C999       H1004   1.110       .  S
C999       H1005   1.110       .  S
C1002      H1006   1.107       .  S
C1002      H1007   1.106       .  S
C1002      H1008   1.111       .  S
C1009      C1010   1.402       .  A
C1009      C1014   1.402       .  A
C1009      H1016   1.080       .  S
C1010      C1011   1.414       .  A
C1011      C1012   1.402       .  A
C1011      C1018   1.503       .  S
C1012      C1013   1.405       .  A
C1012      H1017   1.084       .  S
C1013      C1014   1.418       .  A
C1014      C1015   1.508       .  S
C1015      H1019   1.111       .  S
C1015      H1020   1.110       .  S
C1015      H1021   1.110       .  S
C1018      H1022   1.101       .  S
C1018      H1023   1.110       .  S
C1018      H1024   1.110       .  S
C1025      C1026   1.403       .  A
C1025      C1030   1.409       .  A
C1025      H1032   1.083       .  S
C1026      C1027   1.415       .  A
C1027      C1028   1.395       .  A
C1027      C1034   1.506       .  S
C1028      C1029   1.402       .  A
C1028      H1033   1.084       .  S
C1029      C1030   1.421       .  A
C1030      C1031   1.506       .  S
C1031      H1035   1.111       .  S
C1031      H1036   1.110       .  S
C1031      H1037   1.110       .  S
C1034      H1038   1.111       .  S
C1034      H1039   1.106       .  S
C1034      H1040   1.110       .  S
C1041      C1042   1.405       .  A
C1041      C1046   1.400       .  A
C1041      H1048   1.080       .  S
C1042      C1043   1.418       .  A
C1043      C1044   1.408       .  A
C1043      C1050   1.505       .  S
C1044      C1045   1.401       .  A
C1044      H1049   1.084       .  S
C1045      C1046   1.407       .  A
C1046      C1047   1.508       .  S
C1047      H1051   1.111       .  S
C1047      H1052   1.110       .  S
C1047      H1053   1.110       .  S
C1050      H1054   1.105       .  S
C1050      H1055   1.106       .  S
C1050      H1056   1.111       .  S
C1057      C1058   1.407       .  A
C1057      C1062   1.410       .  A
C1057      H1064   1.082       .  S
C1058      C1059   1.417       .  A
C1059      C1060   1.395       .  A
C1059      C1066   1.507       .  S
C1060      C1061   1.400       .  A
C1060      H1065   1.085       .  S
C1061      C1062   1.415       .  A
C1062      C1063   1.505       .  S
C1063      H1067   1.111       .  S
C1063      H1068   1.110       .  S
C1063      H1069   1.110       .  S
C1066      H1070   1.111       .  S
C1066      H1071   1.102       .  S
C1066      H1072   1.110       .  S
C1073      C1074   1.401   1_554  A
C1073      C1078   1.395       .  A
C1073      H1080   1.084       .  S
C1074      C1075   1.417       .  A
C1075      C1076   1.407       .  A
C1075      C1082   1.507       .  S
C1076      C1077   1.405   1_556  A
C1076      H1081   1.082       .  S
C1077      C1078   1.416       .  A
C1078      C1079   1.506       .  S
C1079      H1083   1.111       .  S
C1079      H1084   1.101       .  S
C1079      H1085   1.111       .  S
C1082      H1086   1.109       .  S
C1082      H1087   1.110       .  S
C1082      H1088   1.111       .  S
C1089      C1090   1.406       .  A
C1089      C1094   1.412       .  A
C1089      H1096   1.084       .  S
C1090      C1091   1.415   1_554  A
C1091      C1092   1.389       .  A
C1091      C1098   1.504       .  S
C1092      C1093   1.401   1_556  A
C1092      H1097   1.084       .  S
C1093      C1094   1.420       .  A
C1094      C1095   1.506       .  S
C1095      H1099   1.111       .  S
C1095      H1100   1.110       .  S
C1095      H1101   1.110       .  S
C1098      H1102   1.110       .  S
C1098      H1103   1.097   1_655  S
C1098      H1104   1.111       .  S
C1105      C1106   1.402       .  A
C1105      C1110   1.395       .  A
C1105      H1112   1.084       .  S
C1106      C1107   1.421       .  A
C1107      C1108   1.409       .  A
C1107      C1114   1.506       .  S
C1108      C1109   1.403       .  A
C1108      H1113   1.083       .  S
C1109      C1110   1.415       .  A
C1110      C1111   1.507       .  S
C1111      H1115   1.110       .  S
C1111      H1116   1.110       .  S
C1111      H1117   1.106       .  S
C1114      H1118   1.111       .  S
C1114      H1119   1.110       .  S
C1114      H1120   1.111       .  S
C1121      C1122   1.402       .  A
C1121      C1126   1.401       .  A
C1121      H1128   1.080       .  S
C1122      C1123   1.415       .  A
C1123      C1124   1.405       .  A
C1123      C1130   1.507       .  S
C1124      C1125   1.406       .  A
C1124      H1129   1.083       .  S
C1125      C1126   1.417       .  A
C1126      C1127   1.509       .  S
C1127      H1131   1.111       .  S
C1127      H1132   1.110       .  S
C1127      H1133   1.110       .  S
C1130      H1134   1.104       .  S
C1130      H1135   1.106       .  S
C1130      H1136   1.110       .  S
C1137      C1138   1.405       .  A
C1137      C1142   1.399       .  A
C1137      H1144   1.077       .  S
C1138      C1139   1.419       .  A
C1139      C1140   1.409       .  A
C1139      C1146   1.506       .  S
C1140      C1141   1.402       .  A
C1140      H1145   1.084       .  S
C1141      C1142   1.408       .  A
C1142      C1143   1.509       .  S
C1143      H1147   1.111       .  S
C1143      H1148   1.109       .  S
C1143      H1149   1.110       .  S
C1146      H1150   1.105       .  S
C1146      H1151   1.106       .  S
C1146      H1152   1.111       .  S
C1153      C1154   1.402       .  A
C1153      C1158   1.403       .  A
C1153      H1160   1.079       .  S
C1154      C1155   1.413       .  A
C1155      C1156   1.403       .  A
C1155      C1162   1.503       .  S
C1156      C1157   1.404       .  A
C1156      H1161   1.083       .  S
C1157      C1158   1.419       .  A
C1158      C1159   1.508       .  S
C1159      H1163   1.111       .  S
C1159      H1164   1.109       .  S
C1159      H1165   1.110       .  S
C1162      H1166   1.106       .  S
C1162      H1167   1.109       .  S
C1162      H1168   1.111       .  S
C1169      C1170   1.404       .  A
C1169      C1174   1.400       .  A
C1169      H1176   1.082       .  S
C1170      C1171   1.414       .  A
C1171      C1172   1.405       .  A
C1171      C1178   1.504       .  S
C1172      C1173   1.408       .  A
C1172      H1177   1.084       .  S
C1173      C1174   1.417       .  A
C1174      C1175   1.508       .  S
C1175      H1179   1.111       .  S
C1175      H1180   1.110       .  S
C1175      H1181   1.110       .  S
C1178      H1182   1.101       .  S
C1178      H1183   1.110       .  S
C1178      H1184   1.110       .  S
C1185      C1186   1.407       .  A
C1185      C1190   1.408       .  A
C1185      H1192   1.082       .  S
C1186      C1187   1.415       .  A
C1187      C1188   1.398       .  A
C1187      C1194   1.503       .  S
C1188      C1189   1.399       .  A
C1188      H1193   1.085       .  S
C1189      C1190   1.412       .  A
C1190      C1191   1.506       .  S
C1191      H1195   1.111       .  S
C1191      H1196   1.111       .  S
C1191      H1197   1.110       .  S
C1194      H1198   1.101       .  S
C1194      H1199   1.111       .  S
C1194      H1200   1.110       .  S
C1201      C1202   1.402   1_545  A
C1201      C1206   1.399       .  A
C1201      H1208   1.084       .  S
C1202      C1203   1.419       .  A
C1203      C1204   1.407       .  A
C1203      C1210   1.507       .  S
C1204      C1205   1.403   1_565  A
C1204      H1209   1.081       .  S
C1205      C1206   1.416       .  A
C1206      C1207   1.505       .  S
C1207      H1211   1.110       .  S
C1207      H1212   1.102       .  S
C1207      H1213   1.111       .  S
C1210      H1214   1.110       .  S
C1210      H1215   1.110       .  S
C1210      H1216   1.111       .  S
C1217      C1218   1.404       .  A
C1217      C1222   1.401       .  A
C1217      H1224   1.083       .  S
C1218      C1219   1.419       .  A
C1219      C1220   1.408   1_565  A
C1219      C1226   1.507   1_565  S
C1220      C1221   1.405   1_545  A
C1220      H1225   1.082       .  S
C1221      C1222   1.412       .  A
C1222      C1223   1.503       .  S
C1223      H1227   1.111       .  S
C1223      H1228   1.109       .  S
C1223      H1229   1.106       .  S
C1226      H1230   1.110       .  S
C1226      H1231   1.109       .  S
C1226      H1232   1.111       .  S
C1233      C1234   1.404       .  A
C1233      C1238   1.409       .  A
C1233      H1240   1.084       .  S
C1234      C1235   1.410       .  A
C1235      C1236   1.398       .  A
C1235      C1242   1.509       .  S
C1236      C1237   1.407       .  A
C1236      H1241   1.082       .  S
C1237      C1238   1.418       .  A
C1238      C1239   1.505       .  S
C1239      H1243   1.111       .  S
C1239      H1244   1.107       .  S
C1239      H1245   1.107       .  S
C1242      H1246   1.110       .  S
C1242      H1247   1.109       .  S
C1242      H1248   1.111       .  S
C1249      C1250   1.400       .  A
C1249      C1254   1.394       .  A
C1249      H1256   1.085       .  S
C1250      C1251   1.416       .  A
C1251      C1252   1.410       .  A
C1251      C1258   1.505       .  S
C1252      C1253   1.406       .  A
C1252      H1257   1.083       .  S
C1253      C1254   1.415       .  A
C1254      C1255   1.507       .  S
C1255      H1259   1.110       .  S
C1255      H1260   1.106       .  S
C1255      H1261   1.110       .  S
C1258      H1262   1.110       .  S
C1258      H1263   1.110       .  S
C1258      H1264   1.111       .  S
