geometry optimzed in LAMMPS
_audit_creation_date              2020-12-01 
_audit_creation_method            'lammps2cif' 
_symmetry_space_group_name_H-M    'P1' 
_symmetry_Int_Tables_number       1 
_symmetry_cell_setting            triclinic 
loop_ 
_symmetry_equiv_pos_as_xyz 
  x,y,z 
_cell_length_a                    48.24038798 
_cell_length_b                    54.639862646943556 
_cell_length_c                    51.463295777777965 
_cell_angle_alpha                 90.47358108459522 
_cell_angle_beta                  89.90231484509223 
_cell_angle_gamma                 90.02207914826637 
loop_ 
_atom_site_label 
_atom_site_type_symbol 
_atom_site_fract_x 
_atom_site_fract_y 
_atom_site_fract_z 
_atom_site_charge 
C1          C  0.08575153  0.68276039  0.93439401     0.80800
N2          N  0.07095590  0.66708196  0.94933709    -0.77500
C3          C  0.04614376  0.65790240  0.94092070     0.83200
N4          N  0.03631935  0.66466579  0.91691832    -0.77500
C5          C  0.05161750  0.68040545  0.90191443     0.83300
N6          N  0.07574212  0.68944195  0.91113800    -0.79200
C7          C  0.87057422  0.67982566  0.93133857     0.80800
N8          N  0.88486003  0.66402394  0.94659997    -0.77500
C9          C  0.91030322  0.65535007  0.93897159     0.83200
N10         N  0.92105593  0.66255145  0.91543096    -0.77500
C11         C  0.90636406  0.67856515  0.90033005     0.83300
N12         N  0.88176671  0.68715698  0.90879771    -0.79200
C13         C  0.90358110  0.68516990  0.15036120     0.80800
N14         N  0.91815205  0.66811621  0.13618517    -0.77500
C15         C  0.90903908  0.66154540  0.11183146     0.83200
N16         N  0.88512581  0.67177274  0.10249187    -0.77500
C17         C  0.87082866  0.68861125  0.11677733     0.83300
N18         N  0.88054904  0.69540870  0.14023886    -0.79200
C19         C  0.04913237  0.68263658  0.15571691     0.80800
N20         N  0.03395251  0.66685051  0.14039744    -0.77500
C21         C  0.04286785  0.66161279  0.11550233     0.83200
N22         N  0.06698571  0.67191242  0.10675483    -0.77500
C23         C  0.08182901  0.68743061  0.12208828     0.83300
N24         N  0.07245192  0.69289250  0.14608407    -0.79200
C25         C  0.90882862  0.51956497  0.15409316     0.80800
N26         N  0.88644531  0.50815547  0.14393446    -0.77500
C27         C  0.87709158  0.51345467  0.12003384     0.83200
N28         N  0.89089659  0.53001067  0.10542298    -0.77500
C29         C  0.91410833  0.54142294  0.11471140     0.83300
N30         N  0.92311214  0.53631387  0.13945044    -0.79200
C31         C  0.87164371  0.51818182  0.93311510     0.80800
N32         N  0.88245120  0.51172775  0.90990885    -0.77500
C33         C  0.90714175  0.52052699  0.90186133     0.83200
N34         N  0.92206345  0.53575125  0.91774813    -0.77500
C35         C  0.91157827  0.54223203  0.94159570     0.83300
N36         N  0.88628066  0.53333718  0.94910114    -0.79200
C37         C  0.08166588  0.51229897  0.93467867     0.80800
N38         N  0.07098645  0.50595793  0.91148036    -0.77500
C39         C  0.04763340  0.51633500  0.90231633     0.83200
N40         N  0.03375424  0.53326857  0.91731917    -0.77500
C41         C  0.04399766  0.53950324  0.94145889     0.83300
N42         N  0.06815323  0.52899200  0.94977685    -0.79200
C43         C  0.04300805  0.51783191  0.15321041     0.80800
N44         N  0.03015109  0.53508057  0.13828606    -0.77500
C45         C  0.04111253  0.54085037  0.11448962     0.83200
N46         N  0.06506693  0.52959861  0.10643374    -0.77500
C47         C  0.07763250  0.51256381  0.12152243     0.83300
N48         N  0.06616752  0.50661368  0.14443030    -0.79200
O49         O  0.03454760  0.64794610  0.98412747    -0.74700
O50         O  0.01042789  0.62835458  0.95183390    -0.53600
C51         C  0.02913375  0.64363683  0.95991394     0.79000
O52         O  0.03253754  0.55288882  0.07160300    -0.59300
O53         O  0.00792893  0.57266369  0.10348431    -0.52300
C54         C  0.02611191  0.55672223  0.09559757     0.71000
O55         O  0.03432287  0.55225403  0.98452933    -0.73900
O56         O  0.00983312  0.57072308  0.95214864    -0.54400
C57         C  0.02827622  0.55536524  0.96032389     0.77000
O58         O  0.03155492  0.65084263  0.07219582    -0.59000
O59         O  0.00797238  0.63107510  0.10438246    -0.52100
C60         C  0.02612804  0.64682088  0.09641800     0.73600
Zr61       Zr  0.01818525  0.63774019  0.02800254     2.54700
O62         O  0.06853308  0.63784111  0.03105614    -0.79600
O63         O  0.01475912  0.68212744  0.02590918    -0.93000
Zr64       Zr  0.02030264  0.56646579  0.02806462     2.64700
O65         O  0.07025442  0.57317886  0.02829920    -0.98000
O66         O  0.02315086  0.52199428  0.02872701    -0.80000
O67         O  0.01996055  0.60177129  0.00172611    -0.83400
O68         O  0.01911281  0.60237711  0.05438489    -2.18100
O69         O  0.92096060  0.64956457  0.06931768    -0.66800
O70         O  0.94464952  0.63102189  0.10221996    -0.51300
C71         C  0.92610259  0.64616059  0.09359247     0.72000
O72         O  0.92227543  0.55286201  0.98482024    -0.59700
O73         O  0.94749932  0.57122041  0.95271870    -0.51600
C74         C  0.92828649  0.55651700  0.96074320     0.73800
O75         O  0.92542014  0.55200767  0.07182939    -0.71100
O76         O  0.94739761  0.57328743  0.10419160    -0.49700
C77         C  0.93023203  0.55671261  0.09603253     0.75200
O78         O  0.92056285  0.64527978  0.98242655    -0.66400
O79         O  0.94707924  0.62713522  0.95087779    -0.53600
C80         C  0.92712084  0.64142260  0.95839862     0.73600
Zr81       Zr  0.93677228  0.63595890  0.02651155     2.77500
O82         O  0.88634441  0.63433053  0.02812151    -0.97100
O83         O  0.94050439  0.68034107  0.02418665    -0.78000
Zr84       Zr  0.93896376  0.56446234  0.02798351     2.70100
O85         O  0.88858795  0.56291925  0.02998302    -0.79200
O86         O  0.94583721  0.52034033  0.02622492    -0.98300
Zr87       Zr  0.97903003  0.60012180  0.97515880     2.21500
Zr88       Zr  0.97754859  0.60215527  0.08041279     2.11100
O89         O  0.93697944  0.60078859  0.05334213    -2.47000
O90         O  0.93774644  0.59959918  0.00121228    -0.79000
O91         O  0.97692367  0.63771001  0.05324993    -0.71200
O92         O  0.97972912  0.56450363  0.00217936    -2.32200
O93         O  0.97793645  0.63676630  0.00133993    -2.28400
O94         O  0.97938395  0.56583541  0.05390320    -0.73000
H95         H  0.03532202  0.60274404  0.06537935     0.79000
H96         H  0.97999806  0.54977141  0.99167664     0.80100
H97         H  0.92038203  0.60060360  0.06387047     0.82300
H98         H  0.97773780  0.65103698  0.99038588     0.80000
H99         H  0.04277301  0.51846887  0.03289906     0.43000
H100        H  0.95726981  0.51667544  0.04167317     0.42000
H101        H  0.88239875  0.57634862  0.01857675     0.41600
H102        H  0.88021814  0.65054188  0.02188170     0.39600
H103        H  0.92485883  0.68545299  0.01305508     0.42700
H104        H  0.03370927  0.68802013  0.02988751     0.37500
H105        H  0.07451123  0.62379539  0.02014979     0.43600
H106        H  0.07601726  0.57085215  0.04656411     0.40000
H107        H  0.88108488  0.62277675  0.01405335     0.44900
H108        H  0.00363164  0.68682571  0.04134431     0.43700
H109        H  0.07806534  0.55888770  0.01887807     0.43800
H110        H  0.92739092  0.51337843  0.03026060     0.44200
C111        C  0.56758633  0.00871838  0.12358827     0.80800
N112        N  0.55119971  0.02342696  0.10896565    -0.77500
C113        C  0.54253383  0.01603762  0.08483594     0.83200
N114        N  0.54993149  0.99336509  0.07574340    -0.77500
C115        C  0.56669477  0.97888157  0.09047670     0.83300
N116        N  0.57563385  0.98686817  0.11392443    -0.79200
C117        C  0.56380440  0.00811534  0.91324141     0.80800
N118        N  0.57185015  0.98617871  0.92222289    -0.77500
C119        C  0.56298199  0.97786800  0.94539514     0.83200
N120        N  0.54626552  0.99231872  0.96066340    -0.77500
C121        C  0.53881741  0.01516167  0.95219674     0.83300
N122        N  0.54742233  0.02271368  0.92823519    -0.79200
C123        C  0.56802918  0.21660561  0.95505812     0.80800
N124        N  0.55135154  0.20117325  0.96880543    -0.77500
C125        C  0.54273052  0.17961412  0.95774589     0.83200
N126        N  0.55032167  0.17414872  0.93276834    -0.77500
C127        C  0.56662184  0.18977102  0.91908883     0.83300
N128        N  0.57571662  0.21059758  0.93054056    -0.79200
C129        C  0.56720074  0.21715583  0.09030266     0.80800
N130        N  0.55109870  0.20190524  0.07546234    -0.77500
C131        C  0.54421515  0.17920837  0.08465367     0.83200
N132        N  0.55327778  0.17234546  0.10870120    -0.77500
C133        C  0.56909170  0.18778599  0.12328351     0.83300
N134        N  0.57623906  0.20975223  0.11373469    -0.79200
C135        C  0.39166547  0.21782455  0.95462087     0.80800
N136        N  0.40832014  0.20277507  0.96899404    -0.77500
C137        C  0.41494254  0.17991191  0.95952292     0.83200
N138        N  0.40539169  0.17286797  0.93557813    -0.77500
C139        C  0.38911036  0.18806208  0.92145064     0.83300
N140        N  0.38203013  0.21005494  0.93137193    -0.79200
C141        C  0.38791871  0.00690663  0.91969046     0.80800
N142        N  0.38083043  0.98495221  0.92943242    -0.77500
C143        C  0.39113066  0.97715399  0.95231294     0.83200
N144        N  0.40838170  0.99213175  0.96643468    -0.77500
C145        C  0.41486142  0.01497680  0.95724809     0.83300
N146        N  0.40478022  0.02199255  0.93364018    -0.79200
C147        C  0.38697467  0.00963716  0.12015482     0.80800
N148        N  0.40481349  0.02410885  0.10685776    -0.77500
C149        C  0.41678312  0.01595811  0.08427406     0.83200
N150        N  0.41105627  0.99281191  0.07537337    -0.77500
C151        C  0.39290807  0.97852109  0.08891167     0.83300
N152        N  0.38083860  0.98725936  0.11077830    -0.79200
C153        C  0.39515404  0.21668764  0.09365988     0.80800
N154        N  0.41089421  0.20157449  0.07828437    -0.77500
C155        C  0.41842566  0.17897470  0.08725234     0.83200
N156        N  0.41004040  0.17190308  0.11146397    -0.77500
C157        C  0.39440483  0.18708593  0.12653532     0.83300
N158        N  0.38680646  0.20907639  0.11728986    -0.79200
O159        O  0.53270028  0.05657894  0.07356625    -0.74700
O160        O  0.51145770  0.02642736  0.04980698    -0.53600
C161        C  0.52776532  0.03393853  0.06819802     0.79000
O162        O  0.42841373  0.13814973  0.07582580    -0.59300
O163        O  0.44915581  0.16814419  0.05193443    -0.52300
C164        C  0.43302019  0.16079059  0.07041788     0.71000
O165        O  0.42847061  0.05636083  0.07437132    -0.73900
O166        O  0.44902724  0.02617413  0.05013588    -0.54400
C167        C  0.43276285  0.03372327  0.06853349     0.77000
O168        O  0.53461133  0.13823279  0.07314899    -0.59000
O169        O  0.51206145  0.16814804  0.05066547    -0.52100
C170        C  0.52928253  0.16087146  0.06825824     0.73600
Zr171      Zr  0.52189398  0.09727145  0.05745560     2.54700
O172        O  0.52423538  0.09685554  0.10472636    -0.79600
O173        O  0.57192987  0.09621688  0.05126368    -0.93000
Zr174      Zr  0.44066932  0.09726454  0.05989941     2.64700
O175        O  0.44382521  0.09524736  0.10707865    -0.98000
O176        O  0.39022726  0.09759421  0.05947788    -0.80000
O177        O  0.48124152  0.07295952  0.05854052    -0.83400
O178        O  0.48127425  0.12152954  0.05947677    -2.18100
O179        O  0.53190468  0.13840991  0.96674092    -0.66800
O180        O  0.51131077  0.16810208  0.99173179    -0.51300
C181        C  0.52753380  0.16098309  0.97312989     0.72000
O182        O  0.42597256  0.05605173  0.96781042    -0.59700
O183        O  0.44747534  0.02603099  0.99100907    -0.51600
C184        C  0.43060722  0.03333886  0.97314498     0.73800
O185        O  0.42499553  0.13885194  0.96997799    -0.71100
O186        O  0.44786548  0.16874058  0.99276510    -0.49700
C187        C  0.43030131  0.16152750  0.97532370     0.75200
O188        O  0.52868094  0.05597916  0.96390973    -0.66400
O189        O  0.50951393  0.02585866  0.98872060    -0.53600
C190        C  0.52450259  0.03327068  0.96945579     0.73600
Zr191      Zr  0.51945142  0.09712742  0.98128470     2.77500
O192        O  0.52128280  0.09698265  0.93395848    -0.97100
O193        O  0.56958508  0.09546084  0.98622395    -0.78000
Zr194      Zr  0.43797922  0.09735213  0.98354955     2.70100
O195        O  0.43633350  0.09851364  0.93632139    -0.79200
O196        O  0.38779549  0.09622410  0.98837545    -0.98300
Zr197      Zr  0.47984116  0.04814824  0.02001851     2.21500
Zr198      Zr  0.47993393  0.14619746  0.02124067     2.11100
O199        O  0.47877971  0.12150561  0.98238406    -2.47000
O200        O  0.47861567  0.07301794  0.98189907    -0.79000
O201        O  0.52118848  0.12173672  0.01956687    -0.71200
O202        O  0.43868879  0.07289314  0.02148435    -2.32200
O203        O  0.52127198  0.07257448  0.01913623    -2.28400
O204        O  0.43865226  0.12172350  0.02202802    -0.73000
H205        H  0.48170643  0.13162975  0.07496057     0.79000
H206        H  0.42234316  0.06265519  0.02182500     0.80100
H207        H  0.47836496  0.13170134  0.96714387     0.82300
H208        H  0.53753366  0.06223099  0.01857427     0.80000
H209        H  0.38512732  0.09030987  0.04247667     0.43000
H210        H  0.38280416  0.11263565  0.99520642     0.42000
H211        H  0.45447445  0.09183627  0.93069586     0.41600
H212        H  0.50852366  0.11020210  0.92861535     0.39600
H213        H  0.57645979  0.08953661  0.96916257     0.42700
H214        H  0.57961423  0.09768071  0.06903699     0.37500
H215        H  0.51047737  0.10918548  0.11054392     0.43600
H216        H  0.45459377  0.10990280  0.11230199     0.40000
H217        H  0.54001989  0.10313381  0.92960517     0.44900
H218        H  0.57643189  0.11202557  0.04298569     0.43700
H219        H  0.42475560  0.09858103  0.11330862     0.43800
H220        H  0.38070366  0.09602405  0.97033161     0.44200
C221        C  0.08028632  0.00916986  0.61177314     0.80800
N222        N  0.06588997  0.02464918  0.59623352    -0.77500
C223        C  0.04111477  0.01763261  0.58557522     0.83200
N224        N  0.03101788  0.99460913  0.59060092    -0.77500
C225        C  0.04578865  0.97921827  0.60629086     0.83300
N226        N  0.06984514  0.98690047  0.61687983    -0.79200
C227        C  0.86642237  0.00890667  0.60905294     0.80800
N228        N  0.87668978  0.98679623  0.61526015    -0.77500
C229        C  0.90128811  0.97890029  0.60585394     0.83200
N230        N  0.91676066  0.99407550  0.59033109    -0.77500
C231        C  0.90680364  0.01696676  0.58425499     0.83300
N232        N  0.88151014  0.02405363  0.59370326    -0.79200
C233        C  0.90492392  0.21953293  0.61303580     0.80800
N234        N  0.91903980  0.20495073  0.59571115    -0.77500
C235        C  0.90896197  0.18209584  0.58967169     0.83200
N236        N  0.88446414  0.17463146  0.60046344    -0.77500
C237        C  0.87057265  0.18930822  0.61751171     0.83300
N238        N  0.88121349  0.21133092  0.62394447    -0.79200
C239        C  0.04342535  0.22094329  0.61131121     0.80800
N240        N  0.02962782  0.20637953  0.59372107    -0.77500
C241        C  0.03836391  0.18267256  0.58971098     0.83200
N242        N  0.06093406  0.17429469  0.60287732    -0.77500
C243        C  0.07427222  0.18879557  0.62028419     0.83300
N244        N  0.06516807  0.21173520  0.62458269    -0.79200
C245        C  0.90358314  0.22082880  0.44134268     0.80800
N246        N  0.88021849  0.21197405  0.43034700    -0.77500
C247        C  0.87036433  0.18968650  0.43620600     0.83200
N248        N  0.88476568  0.17528652  0.45282525    -0.77500
C249        C  0.90902111  0.18329198  0.46376983     0.83300
N250        N  0.91833197  0.20651688  0.45827310    -0.79200
C251        C  0.86934500  0.01391467  0.43527337     0.80800
N252        N  0.88358632  0.02832989  0.45220145    -0.77500
C253        C  0.90737060  0.02009019  0.46356468     0.83200
N254        N  0.91636298  0.99678247  0.45831131    -0.77500
C255        C  0.90181410  0.98245666  0.44118641     0.83300
N256        N  0.87886746  0.99134784  0.42961072    -0.79200
C257        C  0.08103983  0.00889622  0.43904149     0.80800
N258        N  0.06678001  0.02454151  0.45482157    -0.77500
C259        C  0.04206194  0.01765968  0.46561120     0.83200
N260        N  0.03197511  0.99456129  0.46066006    -0.77500
C261        C  0.04647820  0.97902031  0.44463249     0.83300
N262        N  0.07045403  0.98661304  0.43376195    -0.79200
C263        C  0.04460479  0.21928296  0.44026580     0.80800
N264        N  0.06773588  0.21057651  0.42864472    -0.77500
C265        C  0.07815106  0.18848240  0.43455506     0.83200
N266        N  0.06453932  0.17416800  0.45188779    -0.77500
C267        C  0.04063211  0.18217336  0.46358990     0.83300
N268        N  0.03069069  0.20507108  0.45784726    -0.79200
O269        O  0.03170860  0.05902578  0.47612635    -0.74700
O270        O  0.00601721  0.02925319  0.49578128    -0.53600
C271        C  0.02550607  0.03635935  0.48029715     0.79000
O272        O  0.02848954  0.14191106  0.57760040    -0.59300
O273        O  0.00480718  0.17214901  0.55663992    -0.52300
C274        C  0.02275257  0.16465884  0.57341678     0.71000
O275        O  0.03074535  0.05886554  0.57556652    -0.73900
O276        O  0.00571021  0.02910460  0.55471506    -0.54400
C277        C  0.02470117  0.03620458  0.57085903     0.77000
O278        O  0.03011999  0.14156273  0.47497347    -0.59000
O279        O  0.00590646  0.17178086  0.49599190    -0.52100
C280        C  0.02441502  0.16428150  0.47944425     0.73600
Zr281      Zr  0.01534185  0.10045893  0.48764568     2.54700
O282        O  0.06577454  0.10188075  0.48834125    -0.79600
O283        O  0.01263175  0.09981741  0.44038913    -0.93000
Zr284      Zr  0.01551696  0.10033485  0.56371661     2.64700
O285        O  0.06590496  0.10115917  0.56073210    -0.98000
O286        O  0.01394489  0.09993594  0.61101453    -0.80000
O287        O  0.01571232  0.07592359  0.52540770    -0.83400
O288        O  0.01564509  0.12498936  0.52594673    -2.18100
O289        O  0.91949493  0.14258610  0.47518347    -0.66800
O290        O  0.94410193  0.17263984  0.49581832    -0.51300
C291        C  0.92546970  0.16530266  0.47939983     0.72000
O292        O  0.91768048  0.05829565  0.57446453    -0.59700
O293        O  0.94331763  0.02850348  0.55434906    -0.51600
C294        C  0.92382148  0.03557707  0.56997231     0.73800
O295        O  0.91971777  0.14131134  0.57816615    -0.71100
O296        O  0.94319254  0.17156411  0.55689488    -0.49700
C297        C  0.92513396  0.16404980  0.57372287     0.75200
O298        O  0.91815530  0.06043139  0.47548527    -0.66400
O299        O  0.94294236  0.03001515  0.49492817    -0.53600
C300        C  0.92398598  0.03773218  0.47923245     0.73600
Zr301      Zr  0.93356112  0.10126357  0.48818429     2.77500
O302        O  0.88307375  0.10147619  0.48980519    -0.97100
O303        O  0.93409275  0.10101002  0.44087630    -0.78000
Zr304      Zr  0.93400656  0.10007998  0.56443306     2.70100
O305        O  0.88366642  0.10108863  0.56737182    -0.79200
O306        O  0.93925883  0.09845149  0.61147551    -0.98300
Zr307      Zr  0.97440032  0.05150393  0.52524781     2.21500
Zr308      Zr  0.97443816  0.14988032  0.52615512     2.11100
O309        O  0.93314729  0.12516364  0.52673524    -2.47000
O310        O  0.93324004  0.07625802  0.52575682    -0.79000
O311        O  0.97463113  0.12510580  0.48749332    -0.71200
O312        O  0.97479947  0.07587064  0.56423323    -2.32200
O313        O  0.97422853  0.07657140  0.48704720    -2.28400
O314        O  0.97469626  0.12464260  0.56427294    -0.73000
H315        H  0.03201350  0.13518218  0.52605128     0.79000
H316        H  0.97495712  0.06545537  0.57929638     0.80100
H317        H  0.91680497  0.13537665  0.52698774     0.82300
H318        H  0.97409276  0.06642468  0.47160334     0.80000
H319        H  0.03119487  0.09152085  0.61627436     0.43000
H320        H  0.92009985  0.09657437  0.61810328     0.42000
H321        H  0.87753688  0.10682764  0.55011689     0.41600
H322        H  0.87801070  0.11755063  0.49745413     0.39600
H323        H  0.94448303  0.11594119  0.43608486     0.42700
H324        H  0.99940229  0.11303774  0.43614304     0.37500
H325        H  0.07127846  0.10088516  0.46981580     0.43600
H326        H  0.07235617  0.09798514  0.57864469     0.40000
H327        H  0.87729270  0.10254902  0.47139351     0.44900
H328        H  0.00260979  0.08452254  0.43601093     0.43700
H329        H  0.07083443  0.08615299  0.55084087     0.43800
H330        H  0.94812871  0.08247229  0.61492209     0.44200
C331        C  0.00092094  0.45252815  0.31208192    -0.10300
C332        C  0.97591832  0.46503720  0.30959044    -0.04100
C333        C  0.95070198  0.45307056  0.31306218    -0.10300
C334        C  0.95032349  0.43090417  0.32724929     0.10700
C335        C  0.97594108  0.42047553  0.33527821    -0.02100
C336        C  0.00136172  0.43025850  0.32592933     0.10500
C337        C  0.02626986  0.41796793  0.33132302    -0.12100
C338        C  0.02653487  0.39757455  0.34769448    -0.12100
C339        C  0.00186711  0.38888449  0.35890388     0.10500
C340        C  0.97612865  0.39979317  0.35176266    -0.02100
C341        C  0.92541495  0.41942140  0.33443462    -0.12200
C342        C  0.92551965  0.39934505  0.35131214    -0.12200
C343        C  0.95057463  0.38988855  0.36092389     0.10700
C344        C  0.95129890  0.37110753  0.37976971    -0.10300
C345        C  0.97680755  0.36264356  0.38837972    -0.04100
C346        C  0.00179365  0.36989279  0.37744001    -0.10300
H347        H  0.04578584  0.42480845  0.32389053     0.07900
H348        H  0.04623369  0.38918725  0.35233320     0.07900
H349        H  0.90570989  0.42675867  0.32813283     0.08100
H350        H  0.90587721  0.39170187  0.35743970     0.08100
H351        H  0.97593397  0.48196455  0.29868462     0.04600
H352        H  0.97710481  0.34761239  0.40209913     0.04600
C353        C  0.30175890  0.07442569  0.26430436    -0.10300
C354        C  0.31270648  0.09627998  0.25525392    -0.04100
C355        C  0.30546789  0.11889360  0.26578850    -0.10300
C356        C  0.28528909  0.12010673  0.28570796     0.10700
C357        C  0.27401658  0.09791569  0.29560972    -0.02100
C358        C  0.28246348  0.07488885  0.28501664     0.10500
C359        C  0.27167509  0.05325557  0.29557288    -0.12100
C360        C  0.25283843  0.05406474  0.31626576    -0.12100
C361        C  0.24377533  0.07654572  0.32668276     0.10500
C362        C  0.25434584  0.09875731  0.31615554    -0.02100
C363        C  0.27631615  0.14259587  0.29613481    -0.12200
C364        C  0.25634761  0.14344639  0.31583498    -0.12200
C365        C  0.24522949  0.12182057  0.32612558     0.10700
C366        C  0.22545241  0.12237269  0.34639728    -0.10300
C367        C  0.21584322  0.10047962  0.35667612    -0.04100
C368        C  0.22467442  0.07772124  0.34757674    -0.10300
H369        H  0.27800484  0.03555967  0.28801921     0.07900
H370        H  0.24531457  0.03694244  0.32402581     0.07900
H371        H  0.28462320  0.15969050  0.28901363     0.08100
H372        H  0.24990566  0.16116075  0.32325349     0.08100
H373        H  0.32721465  0.09565944  0.23906769     0.04600
H374        H  0.20018962  0.10120508  0.37187847     0.04600
C375        C  0.23104704  0.43389571  0.00465738    -0.10300
C376        C  0.21924760  0.44080653  0.02832844    -0.04100
C377        C  0.22732531  0.43070355  0.05184911    -0.10300
C378        C  0.24871865  0.41295111  0.05205901     0.10700
C379        C  0.26172747  0.40609595  0.02814068    -0.02100
C380        C  0.25232325  0.41605732  0.00420163     0.10500
C381        C  0.26461848  0.40809922  0.98080964    -0.12100
C382        C  0.28633179  0.39106794  0.98083071    -0.12100
C383        C  0.29692631  0.38202924  0.00427419     0.10500
C384        C  0.28434800  0.38943101  0.02819006    -0.02100
C385        C  0.25772477  0.40213965  0.07524820    -0.12200
C386        C  0.27983765  0.38553402  0.07523599    -0.12200
C387        C  0.29385512  0.37952816  0.05209542     0.10700
C388        C  0.31754654  0.36426354  0.05200206    -0.10300
C389        C  0.33142756  0.35983686  0.02872913    -0.04100
C390        C  0.32029002  0.36630053  0.00481550    -0.10300
H391        H  0.25764779  0.41520790  0.96236039     0.07900
H392        H  0.29551219  0.38566170  0.96244150     0.07900
H393        H  0.24794758  0.40676879  0.09359568     0.08100
H394        H  0.28654057  0.37799271  0.09357864     0.08100
H395        H  0.20254878  0.45416284  0.02838902     0.04600
H396        H  0.34887283  0.34726439  0.02899251     0.04600
C397        C  0.64401351  0.12271209  0.26970601    -0.10300
C398        C  0.63372751  0.10055585  0.26036861    -0.04100
C399        C  0.64137533  0.07812041  0.27077489    -0.10300
C400        C  0.66073467  0.07766590  0.29146859     0.10700
C401        C  0.67155886  0.10024326  0.30131226    -0.02100
C402        C  0.66330953  0.12287582  0.29021100     0.10500
C403        C  0.67416667  0.14490505  0.30011574    -0.12100
C404        C  0.69275934  0.14491122  0.32084717    -0.12100
C405        C  0.70110857  0.12288766  0.33227311     0.10500
C406        C  0.69049112  0.10024837  0.32239600    -0.02100
C407        C  0.66919716  0.05562633  0.30286385    -0.12200
C408        C  0.68800784  0.05561074  0.32354291    -0.12200
C409        C  0.69881473  0.07764179  0.33356571     0.10700
C410        C  0.71743905  0.07800508  0.35475321    -0.10300
C411        C  0.72707056  0.10036601  0.36426824    -0.04100
C412        C  0.71945686  0.12266779  0.35363968    -0.10300
H413        H  0.66811989  0.16232573  0.29200260     0.07900
H414        H  0.70035571  0.16232496  0.32806881     0.07900
H415        H  0.66114707  0.03826396  0.29594316     0.08100
H416        H  0.69381372  0.03822698  0.33188764     0.08100
H417        H  0.61966495  0.10082105  0.24389963     0.04600
H418        H  0.74240229  0.10036479  0.37970088     0.04600
C419        C  0.99660047  0.75111452  0.31064082    -0.10300
C420        C  0.97129557  0.74166633  0.30247566    -0.04100
C421        C  0.94612988  0.75293943  0.30803567    -0.10300
C422        C  0.94564313  0.77322522  0.32534481     0.10700
C423        C  0.97109261  0.78166226  0.33633358    -0.02100
C424        C  0.99684958  0.77148717  0.32788437     0.10500
C425        C  0.02170585  0.78164419  0.33729394    -0.12100
C426        C  0.02139402  0.80034280  0.35614180    -0.12100
C427        C  0.99622056  0.80925934  0.36622467     0.10500
C428        C  0.97080774  0.80047592  0.35553141    -0.02100
C429        C  0.92076924  0.78494368  0.33238473    -0.12200
C430        C  0.92054561  0.80366076  0.35118369    -0.12200
C431        C  0.94515343  0.81100239  0.36358951     0.10700
C432        C  0.94507340  0.82808736  0.38440462    -0.10300
C433        C  0.96975337  0.83319466  0.39729041    -0.04100
C434        C  0.99536734  0.82623589  0.38720160    -0.10300
H435        H  0.04151087  0.77456953  0.33075133     0.07900
H436        H  0.04095760  0.80709054  0.36360983     0.07900
H437        H  0.90126228  0.77911833  0.32397800     0.08100
H438        H  0.90086899  0.81168684  0.35676650     0.08100
H439        H  0.97144845  0.72675677  0.28837490     0.04600
H440        H  0.96936305  0.84673535  0.41286849     0.04600
C441        C  0.31366641  0.12098089  0.77427020    -0.10300
C442        C  0.32526890  0.09874045  0.78160266    -0.04100
C443        C  0.31458666  0.07619103  0.77373701    -0.10300
C444        C  0.29145724  0.07558387  0.75691353     0.10700
C445        C  0.27933295  0.09805008  0.74879198    -0.02100
C446        C  0.29023324  0.12088411  0.75775259     0.10500
C447        C  0.27770961  0.14274983  0.74964553    -0.12100
C448        C  0.25482313  0.14236246  0.73300222    -0.12100
C449        C  0.24374959  0.12009995  0.72397079     0.10500
C450        C  0.25615657  0.09766209  0.73182627    -0.02100
C451        C  0.28050092  0.05333586  0.74762659    -0.12200
C452        C  0.25825990  0.05298993  0.73026261    -0.12200
C453        C  0.24582456  0.07485717  0.72219293     0.10700
C454        C  0.22341380  0.07488674  0.70455433    -0.10300
C455        C  0.21065286  0.09688827  0.69849067    -0.04100
C456        C  0.22074659  0.11935519  0.70702425    -0.10300
H457        H  0.28572044  0.16032048  0.75597917     0.07900
H458        H  0.24582507  0.15962230  0.72718341     0.07900
H459        H  0.28947364  0.03604034  0.75333892     0.08100
H460        H  0.25070188  0.03546801  0.72329747     0.08100
H461        H  0.34204354  0.09896967  0.79561904     0.04600
H462        H  0.19281508  0.09660114  0.68559501     0.04600
C463        C  0.95117453  0.44871251  0.74652609    -0.10300
C464        C  0.97616216  0.46017816  0.75216417    -0.04100
C465        C  0.00158067  0.45066520  0.74428377    -0.10300
C466        C  0.00195777  0.43067081  0.72641801     0.10700
C467        C  0.97623777  0.42079846  0.71742998    -0.02100
C468        C  0.95075215  0.42898368  0.72856714     0.10500
C469        C  0.92587171  0.41752568  0.72115120    -0.12100
C470        C  0.92567442  0.39916503  0.70195981    -0.12100
C471        C  0.95034328  0.39181028  0.68961868     0.10500
C472        C  0.97601300  0.40221058  0.69792475    -0.02100
C473        C  0.02683656  0.42051866  0.71697914    -0.12200
C474        C  0.02660063  0.40203142  0.69781362    -0.12200
C475        C  0.00148654  0.39328841  0.68741743     0.10700
C476        C  0.00071044  0.37627778  0.66639600    -0.10300
C477        C  0.97513587  0.36964386  0.65600948    -0.04100
C478        C  0.95033273  0.37474581  0.66873350    -0.10300
H479        H  0.90634001  0.42328106  0.72961905     0.07900
H480        H  0.90599570  0.39131929  0.69614403     0.07900
H481        H  0.04660065  0.42738896  0.72382848     0.08100
H482        H  0.04619594  0.39522761  0.69042940     0.08100
H483        H  0.97600225  0.47490034  0.76651978     0.04600
H484        H  0.97478751  0.35616852  0.64037108     0.04600
C485        C  0.23600809  0.76288642  0.05334936    -0.10300
C486        C  0.22523511  0.75483031  0.02980640    -0.04100
C487        C  0.23617727  0.76170022  0.00595783    -0.10300
C488        C  0.25868725  0.77826910  0.00515312     0.10700
C489        C  0.27040687  0.78671844  0.02900348    -0.02100
C490        C  0.25877268  0.77932866  0.05330180     0.10500
C491        C  0.27022717  0.78854574  0.07646628    -0.12100
C492        C  0.29314074  0.80429799  0.07596938    -0.12100
C493        C  0.30558736  0.81094284  0.05231889     0.10500
C494        C  0.29390039  0.80242763  0.02854032    -0.02100
C495        C  0.26983577  0.78650884  0.98151772    -0.12200
C496        C  0.29237659  0.80267717  0.98112155    -0.12200
C497        C  0.30502592  0.81045541  0.00431311     0.10700
C498        C  0.32898013  0.82554956  0.00420574    -0.10300
C499        C  0.34212555  0.83053200  0.02770648    -0.04100
C500        C  0.32973543  0.82561497  0.05158983    -0.10300
H501        H  0.26160370  0.78345539  0.09509922     0.07900
H502        H  0.30162061  0.81073229  0.09426384     0.07900
H503        H  0.26113274  0.78046566  0.96317633     0.08100
H504        H  0.30048054  0.80845833  0.96251658     0.08100
H505        H  0.20738188  0.74266881  0.03006416     0.04600
H506        H  0.35988547  0.84269415  0.02749435     0.04600
C507        C  0.72366601  0.43672825  0.00287198    -0.10300
C508        C  0.73542599  0.44336789  0.02654620    -0.04100
C509        C  0.72608089  0.43441840  0.05016825    -0.10300
C510        C  0.70430715  0.41711579  0.05050777     0.10700
C511        C  0.69224315  0.40947459  0.02647835    -0.02100
C512        C  0.70239701  0.41881298  0.00241656     0.10500
C513        C  0.69097489  0.41000263  0.97901905    -0.12100
C514        C  0.66975950  0.39244594  0.97911901    -0.12100
C515        C  0.65842709  0.38414211  0.00261553     0.10500
C516        C  0.66973308  0.39273002  0.02654725    -0.02100
C517        C  0.69422782  0.40734288  0.07387746    -0.12200
C518        C  0.67213973  0.39071544  0.07386560    -0.12200
C519        C  0.65923792  0.38370060  0.05052818     0.10700
C520        C  0.63559076  0.36837411  0.05029428    -0.10300
C521        C  0.62248572  0.36340927  0.02677541    -0.04100
C522        C  0.63535861  0.36814815  0.00314287    -0.10300
H523        H  0.69847900  0.41659871  0.96051549     0.07900
H524        H  0.66137696  0.38616483  0.96072406     0.07900
H525        H  0.70323370  0.41272346  0.09232092     0.08100
H526        H  0.66459120  0.38393478  0.09228794     0.08100
H527        H  0.75265383  0.45620720  0.02664727     0.04600
H528        H  0.60491322  0.35095141  0.02682271     0.04600
C529        C  0.00221484  0.75588870  0.75056141    -0.10300
C530        C  0.97732384  0.74431697  0.75617539    -0.04100
C531        C  0.95176565  0.75355573  0.74849703    -0.10300
C532        C  0.95094341  0.77377065  0.73134277     0.10700
C533        C  0.97643190  0.78422496  0.72275961    -0.02100
C534        C  0.00215708  0.77603541  0.73336912     0.10500
C535        C  0.02678879  0.78789232  0.72613280    -0.12100
C536        C  0.02656545  0.80650926  0.70756518    -0.12100
C537        C  0.00168137  0.81389277  0.69580753     0.10500
C538        C  0.97618653  0.80328344  0.70407234    -0.02100
C539        C  0.92581930  0.78360145  0.72227883    -0.12200
C540        C  0.92558414  0.80265821  0.70408552    -0.12200
C541        C  0.95046129  0.81226832  0.69420339     0.10700
C542        C  0.95083499  0.83022982  0.67432518    -0.10300
C543        C  0.97620856  0.83757746  0.66422278    -0.04100
C544        C  0.00129051  0.83134897  0.67566025    -0.10300
H545        H  0.04646724  0.78226096  0.73422539     0.07900
H546        H  0.04610000  0.81465796  0.70187621     0.07900
H547        H  0.90621698  0.77615386  0.72878591     0.08100
H548        H  0.90583084  0.80931668  0.69710663     0.08100
H549        H  0.97766736  0.72934595  0.76996574     0.04600
H550        H  0.97630456  0.85160096  0.64933724     0.04600
C551        C  0.63232135  0.07746552  0.76638051    -0.10300
C552        C  0.62267022  0.09966237  0.77633189    -0.04100
C553        C  0.63243450  0.12218385  0.76785300    -0.10300
C554        C  0.65326325  0.12277140  0.74848272     0.10700
C555        C  0.66349966  0.10028083  0.73791996    -0.02100
C556        C  0.65326358  0.07748078  0.74716622     0.10500
C557        C  0.66391133  0.05556629  0.73672004    -0.12100
C558        C  0.68409609  0.05588018  0.71721365    -0.12100
C559        C  0.69420650  0.07811645  0.70750183     0.10500
C560        C  0.68395166  0.10059123  0.71805215    -0.02100
C561        C  0.66382715  0.14498912  0.73915483    -0.12200
C562        C  0.68400907  0.14529019  0.71965174    -0.12200
C563        C  0.69418590  0.12338593  0.70879553     0.10700
C564        C  0.71403960  0.12344929  0.68858875    -0.10300
C565        C  0.72320787  0.10128024  0.67817078    -0.04100
C566        C  0.71400117  0.07875277  0.68721043    -0.10300
H567        H  0.65644717  0.03801313  0.74339527     0.07900
H568        H  0.69151231  0.03857440  0.70951567     0.07900
H569        H  0.65631420  0.16230652  0.74672844     0.08100
H570        H  0.69138071  0.16283477  0.71285823     0.08100
H571        H  0.60776455  0.09937549  0.79216171     0.04600
H572        H  0.73926063  0.10154948  0.66334566     0.04600
C573        C  0.71671205  0.75793757  0.99391163    -0.10300
C574        C  0.72716386  0.75068187  0.01785270    -0.04100
C575        C  0.71830180  0.76087532  0.04123951    -0.10300
C576        C  0.69723030  0.77885740  0.04102350     0.10700
C577        C  0.68568149  0.78623026  0.01676937    -0.02100
C578        C  0.69604466  0.77629319  0.99298807     0.10500
C579        C  0.68527247  0.78477818  0.96931863    -0.12100
C580        C  0.66421622  0.80244556  0.96888413    -0.12100
C581        C  0.65278399  0.81164377  0.99210134     0.10500
C582        C  0.66370171  0.80350242  0.01632899    -0.02100
C583        C  0.68712840  0.78934302  0.06415335    -0.12200
C584        C  0.66533402  0.80615664  0.06373008    -0.12200
C585        C  0.65307639  0.81307421  0.04015621     0.10700
C586        C  0.63018114  0.82912079  0.03958307    -0.10300
C587        C  0.61861933  0.83534533  0.01580083    -0.04100
C588        C  0.63029322  0.82836431  0.99214259    -0.10300
H589        H  0.69297551  0.77764095  0.95099329     0.07900
H590        H  0.65628916  0.80833373  0.95027808     0.07900
H591        H  0.69568984  0.78420415  0.08276535     0.08100
H592        H  0.65769953  0.81334433  0.08206009     0.08100
H593        H  0.74373842  0.73721833  0.01826192     0.04600
H594        H  0.60219049  0.84891258  0.01569640     0.04600
C595        C  0.03476454  0.28280933  0.42815445     0.20900
C596        C  0.03703124  0.30813225  0.43304862    -0.39000
C597        C  0.03639120  0.32338372  0.41106115     0.19900
C598        C  0.03348938  0.31407311  0.38614867     0.22500
C599        C  0.03171523  0.28880567  0.38125640    -0.39500
C600        C  0.03222923  0.27367518  0.40314827     0.21300
N601        N  0.03642483  0.26436421  0.44542697    -0.32700
C602        C  0.03497745  0.24336594  0.43118586    -0.10300
C603        C  0.03211940  0.24857316  0.40480597    -0.29100
N604        N  0.02703562  0.33195172  0.36940136    -0.45700
C605        C  0.02470845  0.35287511  0.38361533    -0.05000
C606        C  0.03199259  0.34831348  0.40954643    -0.22400
H607        H  0.03820389  0.31549210  0.45260546     0.19500
H608        H  0.02878226  0.28148611  0.36184541     0.18300
H609        H  0.03246430  0.23564550  0.38875148     0.14500
H610        H  0.02813299  0.36036024  0.42596644     0.14400
H611        H  0.04040502  0.26596805  0.46531032     0.32600
H612        H  0.01974211  0.32917301  0.35049587     0.35300
C613        C  0.17359388  0.16378291  0.36527324     0.20900
C614        C  0.14575842  0.17118285  0.36390579    -0.39000
C615        C  0.13220779  0.17461470  0.38782068     0.19900
C616        C  0.14531913  0.17110215  0.41138842     0.22500
C617        C  0.17348805  0.16478487  0.41276692    -0.39500
C618        C  0.18710044  0.16130797  0.38882947     0.21300
N619        N  0.18864252  0.15372813  0.34589731    -0.32700
C620        C  0.21172899  0.14445490  0.35712951    -0.10300
C621        C  0.21188535  0.14972086  0.38375920    -0.29100
N622        N  0.12744429  0.17432620  0.43129968    -0.45700
C623        C  0.10287461  0.18016465  0.42022004    -0.05000
C624        C  0.10508608  0.18062484  0.39320086    -0.22400
H625        H  0.13485919  0.17243272  0.34559642     0.19500
H626        H  0.18360607  0.16125459  0.43111317     0.18300
H627        H  0.22555460  0.14183043  0.39809401     0.14500
H628        H  0.08898793  0.18503470  0.37938219     0.14400
H629        H  0.18172813  0.15026283  0.32699202     0.32600
H630        H  0.13183538  0.17330548  0.45112806     0.35300
C631        C  0.13710911  0.01971717  0.39520101     0.20900
C632        C  0.15032087  0.02084416  0.37084906    -0.39000
C633        C  0.17620267  0.03264418  0.37048795     0.19900
C634        C  0.18820271  0.04187095  0.39293611     0.22500
C635        C  0.17531693  0.04013095  0.41736236    -0.39500
C636        C  0.14904492  0.02919693  0.41753994     0.21300
N637        N  0.11153325  0.01129396  0.40027258    -0.32700
C638        C  0.10686233  0.01595914  0.42583931    -0.10300
C639        C  0.12978910  0.02711709  0.43735165    -0.29100
N640        N  0.20994972  0.05607677  0.38711635    -0.45700
C641        C  0.21160994  0.05664410  0.36079775    -0.05000
C642        C  0.19123872  0.04169723  0.34970644    -0.22400
H643        H  0.14022168  0.01467910  0.35320529     0.19500
H644        H  0.18407873  0.04855466  0.43459776     0.18300
H645        H  0.13203933  0.03290896  0.45739811     0.14500
H646        H  0.18545269  0.04078905  0.32941002     0.14400
H647        H  0.09778161  0.00329641  0.38703417     0.32600
H648        H  0.22081390  0.06722401  0.40018659     0.35300
C649        C  0.03125000  0.88087936  0.39617158     0.20900
C650        C  0.03356003  0.90563966  0.38951293    -0.39000
C651        C  0.03376925  0.92239948  0.41029794     0.19900
C652        C  0.03224218  0.91525743  0.43596794     0.22500
C653        C  0.03059219  0.89035664  0.44270414    -0.39500
C654        C  0.03021677  0.87346668  0.42179371     0.21300
N655        N  0.02438061  0.86237834  0.38001476    -0.32700
C656        C  0.01806644  0.84300732  0.39521795    -0.10300
C657        C  0.02286123  0.84903290  0.42142631    -0.29100
N658        N  0.03388344  0.93492187  0.45203917    -0.45700
C659        C  0.03657126  0.95462673  0.43630167    -0.05000
C660        C  0.03637329  0.94742687  0.41022850    -0.22400
H661        H  0.03371065  0.91155134  0.36949039     0.19500
H662        H  0.02859148  0.88459667  0.46269188     0.18300
H663        H  0.01609119  0.83862930  0.43809183     0.14500
H664        H  0.03972252  0.95890385  0.39346430     0.14400
H665        H  0.01985958  0.86411005  0.36026451     0.32600
H666        H  0.03491859  0.93477490  0.47230683     0.35300
C667        C  0.81070292  0.02460774  0.39487392     0.20900
C668        C  0.79516032  0.02444390  0.37179665    -0.39000
C669        C  0.76839310  0.03442467  0.37362051     0.19900
C670        C  0.75778358  0.04312671  0.39693595     0.22500
C671        C  0.77318635  0.04290176  0.42006239    -0.39500
C672        C  0.80024638  0.03384809  0.41799137     0.21300
N673        N  0.83690206  0.01693562  0.39806371    -0.32700
C674        C  0.84332077  0.02179186  0.42323177    -0.10300
C675        C  0.82109399  0.03257140  0.43627800    -0.29100
N676        N  0.73453143  0.05590279  0.39289916    -0.45700
C677        C  0.73077927  0.05650421  0.36677136    -0.05000
C678        C  0.75097290  0.04245703  0.35414263    -0.22400
H679        H  0.80395137  0.01850968  0.35343486     0.19500
H680        H  0.76540990  0.05096823  0.43791958     0.18300
H681        H  0.82002414  0.03791044  0.45655351     0.14500
H682        H  0.75534153  0.04211650  0.33350513     0.14400
H683        H  0.84964580  0.00876959  0.38403629     0.32600
H684        H  0.72437542  0.06674964  0.40676741     0.35300
C685        C  0.91127534  0.87655730  0.41526194     0.20900
C686        C  0.90974737  0.89189176  0.43736761    -0.39000
C687        C  0.91080075  0.91716886  0.43266847     0.19900
C688        C  0.91250234  0.92632797  0.40775591     0.22500
C689        C  0.91357375  0.91108826  0.38569652    -0.39500
C690        C  0.91298472  0.88584840  0.39039451     0.21300
N691        N  0.91686019  0.85247057  0.41500983    -0.32700
C692        C  0.92320580  0.84639726  0.39000856    -0.10300
C693        C  0.91978200  0.86666797  0.37396883    -0.29100
N694        N  0.91189226  0.95084715  0.40821985    -0.45700
C695        C  0.91004126  0.95756150  0.43356812    -0.05000
C696        C  0.90951523  0.93704089  0.44955604    -0.22400
H697        H  0.90931635  0.88464370  0.45687313     0.19500
H698        H  0.91592962  0.91837934  0.36632387     0.18300
H699        H  0.92700547  0.86834125  0.35413075     0.14500
H700        H  0.90633682  0.93666040  0.47037167     0.14400
H701        H  0.92062030  0.84185375  0.43142888     0.32600
H702        H  0.91133752  0.96237627  0.39213118     0.35300
C703        C  0.91075253  0.27733311  0.40798542     0.20900
C704        C  0.90832444  0.29279694  0.38642789    -0.39000
C705        C  0.91205873  0.31787701  0.39131624     0.19900
C706        C  0.91738989  0.32684008  0.41600410     0.22500
C707        C  0.91918987  0.31132001  0.43775273    -0.39500
C708        C  0.91608391  0.28610790  0.43272480     0.21300
N709        N  0.90791918  0.25293488  0.40816744    -0.32700
C710        C  0.91159683  0.24572764  0.43311128    -0.10300
C711        C  0.91700691  0.26598171  0.44912715    -0.29100
N712        N  0.92623118  0.35013157  0.41474462    -0.45700
C713        C  0.92788905  0.35585929  0.38906778    -0.05000
C714        C  0.91784765  0.33642416  0.37399768    -0.22400
H715        H  0.90531385  0.28563454  0.36696288     0.19500
H716        H  0.92448097  0.31822889  0.45688116     0.18300
H717        H  0.91930592  0.26617780  0.47003832     0.14500
H718        H  0.92033911  0.33419074  0.35320212     0.14400
H719        H  0.90258943  0.24183741  0.39231178     0.32600
H720        H  0.93530508  0.35986524  0.43009398     0.35300
C721        C  0.81242769  0.17809977  0.39477081     0.20900
C722        C  0.79780611  0.17690444  0.37116008    -0.39000
C723        C  0.77107100  0.16674576  0.37244046     0.19900
C724        C  0.75959950  0.15925943  0.39573431     0.22500
C725        C  0.77396515  0.16106669  0.41939829    -0.39500
C726        C  0.80105340  0.17018683  0.41791414     0.21300
N727        N  0.83865733  0.18559770  0.39844835    -0.32700
C728        C  0.84425000  0.18189821  0.42395027    -0.10300
C729        C  0.82132864  0.17221184  0.43677464    -0.29100
N730        N  0.73661116  0.14608713  0.39146682    -0.45700
C731        C  0.73373811  0.14415996  0.36529384    -0.05000
C732        C  0.75443121  0.15753670  0.35273476    -0.22400
H733        H  0.80734033  0.18180793  0.35287305     0.19500
H734        H  0.76550601  0.15394113  0.43730280     0.18300
H735        H  0.81955296  0.16778675  0.45716857     0.14500
H736        H  0.75939749  0.15699673  0.33221939     0.14400
H737        H  0.85205961  0.19272221  0.38444804     0.32600
H738        H  0.72578952  0.13611902  0.40545580     0.35300
C739        C  0.03330150  0.28561617  0.61859122     0.20900
C740        C  0.03339728  0.31054732  0.61166062    -0.39000
C741        C  0.03373236  0.32761393  0.63248128     0.19900
C742        C  0.03382877  0.32033501  0.65815833     0.22500
C743        C  0.03432364  0.29555968  0.66499305    -0.39500
C744        C  0.03377779  0.27867609  0.64435031     0.21300
N745        N  0.03402837  0.26568513  0.60275109    -0.32700
C746        C  0.03502465  0.24605743  0.61880860    -0.10300
C747        C  0.03462598  0.25360476  0.64475956    -0.29100
N748        N  0.02787823  0.33922781  0.67414957    -0.45700
C749        C  0.02299864  0.35882009  0.65882530    -0.05000
C750        C  0.02795058  0.35240375  0.63268260    -0.22400
H751        H  0.03215325  0.31625729  0.59160814     0.19500
H752        H  0.03368470  0.28978450  0.68505364     0.18300
H753        H  0.03675414  0.24219834  0.66174216     0.14500
H754        H  0.02205384  0.36299558  0.61588605     0.14400
H755        H  0.03554688  0.26553500  0.58250361     0.32600
H756        H  0.02281972  0.33775424  0.69382748     0.35300
C757        C  0.16975332  0.16144220  0.68752371     0.20900
C758        C  0.14315296  0.17179740  0.68964492    -0.39000
C759        C  0.12863952  0.17451959  0.66617904     0.19900
C760        C  0.13957216  0.16707501  0.64251140     0.22500
C761        C  0.16642689  0.15759913  0.64029969    -0.39500
C762        C  0.18117231  0.15541432  0.66361246     0.21300
N763        N  0.18533073  0.15237852  0.70691724    -0.32700
C764        C  0.20678255  0.14058149  0.69521827    -0.10300
C765        C  0.20525281  0.14288130  0.66825788    -0.29100
N766        N  0.12115312  0.17021916  0.62326474    -0.45700
C767        C  0.09851626  0.18020072  0.63468374    -0.05000
C768        C  0.10237508  0.18330000  0.66138482    -0.22400
H769        H  0.13385341  0.17616591  0.70826773     0.19500
H770        H  0.17476528  0.15127256  0.62189517     0.18300
H771        H  0.21731124  0.13281437  0.65398275     0.14500
H772        H  0.08788320  0.19093516  0.67533583     0.14400
H773        H  0.17984060  0.15164722  0.72653938     0.32600
H774        H  0.12402785  0.16642184  0.60351630     0.35300
C775        C  0.91931192  0.31736399  0.66274799     0.20900
C776        C  0.92006152  0.29237233  0.66896377    -0.39000
C777        C  0.91822928  0.27591283  0.64791976     0.19900
C778        C  0.91569121  0.28361402  0.62251359     0.22500
C779        C  0.91436575  0.30863769  0.61632950    -0.39500
C780        C  0.91610449  0.32517916  0.63744392     0.21300
N781        N  0.92646898  0.33617260  0.67842565    -0.32700
C782        C  0.92857006  0.35620329  0.66311882    -0.10300
C783        C  0.92090709  0.35009793  0.63756167    -0.29100
N784        N  0.91334713  0.26424544  0.60617998    -0.45700
C785        C  0.91428272  0.24407773  0.62138350    -0.05000
C786        C  0.91737485  0.25071431  0.64748528    -0.22400
H787        H  0.92309766  0.28617496  0.68867704     0.19500
H788        H  0.91303780  0.31481275  0.59644198     0.18300
H789        H  0.92418684  0.36121424  0.62051031     0.14500
H790        H  0.91703573  0.23870513  0.66410817     0.14400
H791        H  0.93375806  0.33459529  0.69744642     0.32600
H792        H  0.90951207  0.26476689  0.58622402     0.35300
C793        C  0.80087547  0.17235878  0.63266227     0.20900
C794        C  0.77368246  0.16452492  0.62782670    -0.39000
C795        C  0.75663986  0.16192309  0.64977205     0.19900
C796        C  0.76603927  0.16662255  0.67474273     0.22500
C797        C  0.79278116  0.17586340  0.67942161    -0.39500
C798        C  0.80981483  0.17840958  0.65743316     0.21300
N799        N  0.82166121  0.17443470  0.61532746    -0.32700
C800        C  0.84390730  0.18219384  0.62913439    -0.10300
C801        C  0.83729175  0.18505566  0.65540623    -0.29100
N802        N  0.74886025  0.15666043  0.69240188    -0.45700
C803        C  0.72862204  0.14528475  0.67859925    -0.05000
C804        C  0.73224537  0.14913088  0.65200431    -0.22400
H805        H  0.76693502  0.15901736  0.60859942     0.19500
H806        H  0.80055074  0.17886713  0.69890865     0.18300
H807        H  0.85088158  0.19101735  0.67093252     0.14500
H808        H  0.72152808  0.13971541  0.63638375     0.14400
H809        H  0.82066492  0.17123770  0.59531186     0.32600
H810        H  0.75282178  0.15477452  0.71223679     0.35300
C811        C  0.91628035  0.88513041  0.66277057     0.20900
C812        C  0.91566624  0.91058115  0.66708222    -0.39000
C813        C  0.91421723  0.92527497  0.64482684     0.19900
C814        C  0.91282982  0.91553544  0.62000472     0.22500
C815        C  0.91271455  0.88998035  0.61569433    -0.39500
C816        C  0.91459824  0.87517866  0.63804312     0.21300
N817        N  0.92382980  0.86799235  0.68006595    -0.32700
C818        C  0.92786574  0.84684525  0.66651897    -0.10300
C819        C  0.92113618  0.85058687  0.64026215    -0.29100
N820        N  0.91070911  0.93359200  0.60223209    -0.45700
C821        C  0.91093292  0.95500058  0.61592029    -0.05000
C822        C  0.91310906  0.95037420  0.64250907    -0.22400
H823        H  0.91775751  0.91845097  0.68634946     0.19500
H824        H  0.91250281  0.88219177  0.59629182     0.18300
H825        H  0.92603694  0.83837609  0.62423275     0.14500
H826        H  0.91204152  0.96364189  0.65821607     0.14400
H827        H  0.93024478  0.87152173  0.69911524     0.32600
H828        H  0.90764759  0.93142589  0.58225984     0.35300
C829        C  0.79811538  0.02882572  0.62625604     0.20900
C830        C  0.77141628  0.03833578  0.62256868    -0.39000
C831        C  0.75519706  0.04117299  0.64510517     0.19900
C832        C  0.76495751  0.03531254  0.66956942     0.22500
C833        C  0.79121178  0.02473720  0.67309355    -0.39500
C834        C  0.80731106  0.02173577  0.65051947     0.21300
N835        N  0.81820203  0.02591728  0.60825671    -0.32700
C836        C  0.84017211  0.01657806  0.62118805    -0.10300
C837        C  0.83410361  0.01354501  0.64747894    -0.29100
N838        N  0.74851727  0.04501479  0.68817476    -0.45700
C839        C  0.72827336  0.05730488  0.67551031    -0.05000
C840        C  0.73130281  0.05449802  0.64862490    -0.22400
H841        H  0.76443499  0.04458300  0.60377902     0.19500
H842        H  0.79930362  0.02075369  0.69220169     0.18300
H843        H  0.84771190  0.00662007  0.66241674     0.14500
H844        H  0.72037357  0.06456895  0.63378879     0.14400
H845        H  0.81696100  0.02973705  0.58843897     0.32600
H846        H  0.75285247  0.04587381  0.70804387     0.35300
C847        C  0.18848125  0.04105047  0.65681043     0.20900
C848        C  0.17412453  0.04173284  0.63309165    -0.39000
C849        C  0.14822422  0.03016662  0.63276679     0.19900
C850        C  0.13805892  0.01783505  0.65412229     0.22500
C851        C  0.15266106  0.01668897  0.67770654    -0.39500
C852        C  0.17810395  0.02917012  0.67840063     0.21300
N853        N  0.20982806  0.05541150  0.66350395    -0.32700
C854        C  0.21257833  0.05368953  0.68967356    -0.10300
C855        C  0.19362641  0.03683468  0.69958450    -0.29100
N856        N  0.11265719  0.00898411  0.64914548    -0.45700
C857        C  0.10630941  0.01617908  0.62468927    -0.05000
C858        C  0.12793582  0.02955650  0.61380900    -0.22400
H859        H  0.18150108  0.05233165  0.61680036     0.19500
H860        H  0.14382921  0.00834508  0.69483529     0.18300
H861        H  0.18857222  0.03403644  0.71984205     0.14500
H862        H  0.12878817  0.03752589  0.59464320     0.14400
H863        H  0.21916284  0.06844530  0.65157630     0.32600
H864        H  0.10015421  0.99893309  0.66176916     0.35300
C865        C  0.03304267  0.92639230  0.64372342     0.20900
C866        C  0.03219755  0.91331953  0.66707513    -0.39000
C867        C  0.03370659  0.88776410  0.66476900     0.19900
C868        C  0.03578122  0.87611629  0.64089222     0.22500
C869        C  0.03731863  0.88930307  0.61748060    -0.39500
C870        C  0.03559744  0.91494070  0.61980521     0.21300
N871        N  0.03321548  0.95078010  0.64107284    -0.32700
C872        C  0.03586301  0.95524678  0.61530816    -0.10300
C873        C  0.03727230  0.93323343  0.60127634    -0.29100
N874        N  0.03032800  0.85210509  0.64334002    -0.45700
C875        C  0.02384638  0.84844644  0.66875502    -0.05000
C876        C  0.02712848  0.87019764  0.68286361    -0.22400
H877        H  0.02939800  0.92239186  0.68567282     0.19500
H878        H  0.03828675  0.88020541  0.59874065     0.18300
H879        H  0.04158953  0.93091759  0.58076107     0.14500
H880        H  0.01956390  0.87377827  0.70234979     0.14400
H881        H  0.03348943  0.96371347  0.65614039     0.32600
H882        H  0.02653787  0.83997320  0.62794907     0.35300
C883        C  0.35240704  0.17590404  0.18214812     0.20900
C884        C  0.32763354  0.17563114  0.19646588    -0.39000
C885        C  0.32875649  0.16376660  0.22046637     0.19900
C886        C  0.35303583  0.15351683  0.22966787     0.22500
C887        C  0.37802335  0.15428379  0.21555632    -0.39500
C888        C  0.37663862  0.16545866  0.19115876     0.21300
N889        N  0.35604353  0.18466578  0.15816426    -0.32700
C890        C  0.38258032  0.17945502  0.15150976    -0.10300
C891        C  0.39621752  0.16733367  0.17153878    -0.29100
N892        N  0.34769248  0.13934831  0.25019544    -0.45700
C893        C  0.31979844  0.13984841  0.25373692    -0.05000
C894        C  0.30732877  0.15547325  0.23594211    -0.22400
H895        H  0.30841501  0.18259640  0.18861720     0.19500
H896        H  0.39657081  0.14511467  0.22217530     0.18300
H897        H  0.41746021  0.16097375  0.17178767     0.14500
H898        H  0.28537608  0.15714321  0.23201567     0.14400
H899        H  0.34120414  0.19342062  0.14676681     0.32600
H900        H  0.36169934  0.12742831  0.25899919     0.35300
C901        C  0.33013567  0.30768072  0.07969803     0.20900
C902        C  0.32736565  0.28219733  0.07716288    -0.39000
C903        C  0.35174022  0.26853047  0.08008167     0.19900
C904        C  0.37698183  0.27928378  0.08575004     0.22500
C905        C  0.37972359  0.30481630  0.08868309    -0.39500
C906        C  0.35532210  0.31860177  0.08530382     0.21300
N907        N  0.31145105  0.32447214  0.07235500    -0.32700
C908        C  0.32477451  0.34631904  0.07227808    -0.10300
C909        C  0.35200550  0.34341512  0.08129518    -0.29100
N910        N  0.39667497  0.26204671  0.08890569    -0.45700
C911        C  0.38385914  0.24021260  0.08493631    -0.05000
C912        C  0.35584810  0.24359306  0.07935710    -0.22400
H913        H  0.30785564  0.27369245  0.07197349     0.19500
H914        H  0.39959983  0.31338746  0.09226615     0.18300
H915        H  0.36858077  0.35671009  0.07992999     0.14500
H916        H  0.34014629  0.22957651  0.07713383     0.14400
H917        H  0.29227605  0.32065910  0.06381172     0.32600
H918        H  0.41710410  0.26487348  0.09491975     0.35300
C919        C  0.31773931  0.03467825  0.21265669     0.20900
C920        C  0.31486608  0.02822447  0.18631403    -0.39000
C921        C  0.33965949  0.02411548  0.17264316     0.19900
C922        C  0.36541304  0.02626813  0.18424823     0.22500
C923        C  0.36824981  0.03178708  0.21079023    -0.39500
C924        C  0.34344134  0.03579757  0.22453897     0.21300
N925        N  0.29817127  0.04474914  0.22805003    -0.32700
C926        C  0.31142608  0.05256835  0.24981352    -0.10300
C927        C  0.33955009  0.04649700  0.24857549    -0.29100
N928        N  0.38581403  0.02259624  0.16674849    -0.45700
C929        C  0.37284874  0.01786775  0.14392848    -0.05000
C930        C  0.34412093  0.01849856  0.14684385    -0.22400
H931        H  0.29490554  0.02799168  0.17673888     0.19500
H932        H  0.38835815  0.03420935  0.21975201     0.18300
H933        H  0.35573302  0.05330632  0.26126946     0.14500
H934        H  0.32862722  0.01505168  0.13206906     0.14400
H935        H  0.27795038  0.04910757  0.22251485     0.32600
H936        H  0.40714267  0.02263635  0.17021662     0.35300
C937        C  0.36647915  0.87286617  0.08083432     0.20900
C938        C  0.38972234  0.88836732  0.07882357    -0.39000
C939        C  0.38411069  0.91358226  0.07879785     0.19900
C940        C  0.35741441  0.92247844  0.08134016     0.22500
C941        C  0.33432776  0.90710280  0.08378831    -0.39500
C942        C  0.33984231  0.88195832  0.08332585     0.21300
N943        N  0.36574708  0.84888389  0.07503304    -0.32700
C944        C  0.33850561  0.84289105  0.07232771    -0.10300
C945        C  0.32179057  0.86283335  0.07891341    -0.29100
N946        N  0.35750189  0.94693250  0.08253535    -0.45700
C947        C  0.38438531  0.95390092  0.08077473    -0.05000
C948        C  0.40173638  0.93361057  0.07794473    -0.22400
H949        H  0.41046914  0.88128676  0.07598812     0.19500
H950        H  0.31341895  0.91423409  0.08483232     0.18300
H951        H  0.29981421  0.86457582  0.07510789     0.14500
H952        H  0.42416843  0.93341275  0.07791657     0.14400
H953        H  0.38269826  0.83853050  0.06866359     0.32600
H954        H  0.34038801  0.95820482  0.08607733     0.35300
C955        C  0.33122405  0.03131518  0.82029507     0.20900
C956        C  0.32584094  0.01960556  0.84397468    -0.39000
C957        C  0.34855673  0.01735887  0.86082877     0.19900
C958        C  0.37464197  0.02614138  0.85463707     0.22500
C959        C  0.38038287  0.03649761  0.83038552    -0.39500
C960        C  0.35772721  0.03862880  0.81345630     0.21300
N961        N  0.31232724  0.04100026  0.80410437    -0.32700
C962        C  0.32685722  0.05473717  0.78698698    -0.10300
C963        C  0.35532890  0.05271873  0.79161566    -0.29100
N964        N  0.39197555  0.02418783  0.87499558    -0.45700
C965        C  0.37686530  0.01375308  0.89414484    -0.05000
C966        C  0.34981866  0.00898132  0.88596079    -0.22400
H967        H  0.30507066  0.01448726  0.84978019     0.19500
H968        H  0.40052012  0.04409166  0.82580663     0.18300
H969        H  0.37159361  0.06373000  0.78309381     0.14500
H970        H  0.33314195  0.00104263  0.89719141     0.14400
H971        H  0.29084235  0.04087056  0.80668322     0.32600
H972        H  0.41277739  0.02945348  0.87578416     0.35300
C973        C  0.36526860  0.87158846  0.97089226     0.20900
C974        C  0.38833498  0.88747582  0.97052138    -0.39000
C975        C  0.38251110  0.91241137  0.96670111     0.19900
C976        C  0.35580679  0.92061388  0.96252318     0.22500
C977        C  0.33284190  0.90472679  0.96241711    -0.39500
C978        C  0.33854453  0.87992899  0.96708695     0.21300
N979        N  0.36485742  0.84851322  0.97974183    -0.32700
C980        C  0.33770828  0.84227464  0.98289103    -0.10300
C981        C  0.32072824  0.86120301  0.97408233    -0.29100
N982        N  0.35569877  0.94487911  0.95856807    -0.45700
C983        C  0.38241583  0.95247776  0.96060199    -0.05000
C984        C  0.39984371  0.93271311  0.96588154    -0.22400
H985        H  0.40910664  0.88110306  0.97459479     0.19500
H986        H  0.31186714  0.91142960  0.96027011     0.18300
H987        H  0.29860259  0.86288679  0.97713312     0.14500
H988        H  0.42222425  0.93290595  0.96725039     0.14400
H989        H  0.38201129  0.83909238  0.98696117     0.32600
H990        H  0.33851017  0.95560095  0.95390550     0.35300
C991        C  0.35983731  0.32237552  0.97174169     0.20900
C992        C  0.38379875  0.30757507  0.97202274    -0.39000
C993        C  0.37948576  0.28227990  0.96870481     0.19900
C994        C  0.35332890  0.27272616  0.96454841     0.22500
C995        C  0.32951502  0.28750680  0.96362151    -0.39500
C996        C  0.33371726  0.31268785  0.96759366     0.21300
N997        N  0.35786017  0.34555470  0.98050036    -0.32700
C998        C  0.33033445  0.35052645  0.98308648    -0.10300
C999        C  0.31469062  0.33068971  0.97402485    -0.29100
N1000       N  0.35462922  0.24838859  0.96115561    -0.45700
C1001       C  0.38172317  0.24207517  0.96336264    -0.05000
C1002       C  0.39799077  0.26277853  0.96827942    -0.22400
H1003       H  0.40409875  0.31504151  0.97623240     0.19500
H1004       H  0.30899166  0.27976126  0.96139571     0.18300
H1005       H  0.29268205  0.32793046  0.97693922     0.14500
H1006       H  0.42036143  0.26369127  0.96946686     0.14400
H1007       H  0.37418436  0.35580513  0.98830506     0.32600
H1008       H  0.33812420  0.23679053  0.95645285     0.35300
C1009       C  0.33025377  0.16500579  0.82236737     0.20900
C1010       C  0.32527116  0.17557163  0.84690182    -0.39000
C1011       C  0.34840936  0.17767232  0.86329494     0.19900
C1012       C  0.37455776  0.16980088  0.85594317     0.22500
C1013       C  0.37985091  0.16060333  0.83089269    -0.39500
C1014       C  0.35674910  0.15867888  0.81437740     0.21300
N1015       N  0.31113568  0.15541228  0.80615114    -0.32700
C1016       C  0.32549879  0.14270547  0.78782339    -0.10300
C1017       C  0.35405281  0.14542527  0.79173008    -0.29100
N1018       N  0.39248166  0.17160603  0.87594043    -0.45700
C1019       C  0.37761172  0.18105181  0.89600356    -0.05000
C1020       C  0.35018382  0.18528423  0.88878168    -0.22400
H1021       H  0.30455092  0.17996272  0.85355409     0.19500
H1022       H  0.40006183  0.15372995  0.82530509     0.18300
H1023       H  0.37035393  0.13509150  0.78218849     0.14500
H1024       H  0.33365501  0.19258975  0.90079363     0.14400
H1025       H  0.28977393  0.15474990  0.80944312     0.32600
H1026       H  0.41350774  0.16704526  0.87586460     0.35300
C1027       C  0.62584802  0.31171868  0.07898937     0.20900
C1028       C  0.63098964  0.28644852  0.07761086    -0.39000
C1029       C  0.60758743  0.27125156  0.07881560     0.19900
C1030       C  0.58102570  0.28039263  0.08167038     0.22500
C1031       C  0.57592595  0.30567004  0.08370936    -0.39500
C1032       C  0.59936401  0.32096491  0.08224756     0.21300
N1033       N  0.64360612  0.32959485  0.07240089    -0.32700
C1034       C  0.62841694  0.35039429  0.07059679    -0.10300
C1035       C  0.60087441  0.34580679  0.07784238    -0.29100
N1036       N  0.56247797  0.26200847  0.08340811    -0.45700
C1037       C  0.57741177  0.24103745  0.08158206    -0.05000
C1038       C  0.60558504  0.24612957  0.07865056    -0.22400
H1039       H  0.65159571  0.27917272  0.07442488     0.19500
H1040       H  0.55511551  0.31294801  0.08520392     0.18300
H1041       H  0.58335508  0.35782119  0.07480367     0.14500
H1042       H  0.62253803  0.23315190  0.07854148     0.14400
H1043       H  0.66373167  0.32694628  0.06538047     0.32600
H1044       H  0.54130824  0.26361903  0.08735497     0.35300
C1045       C  0.58473924  0.17165438  0.18869514     0.20900
C1046       C  0.57969967  0.16447537  0.21435280    -0.39000
C1047       C  0.60327582  0.16141189  0.22994622     0.19900
C1048       C  0.62991921  0.16508849  0.22063313     0.22500
C1049       C  0.63483913  0.17359157  0.19540256    -0.39500
C1050       C  0.61126322  0.17657349  0.17984790     0.21300
N1051       N  0.56608019  0.17403268  0.16944072    -0.32700
C1052       C  0.58096594  0.18073892  0.14833014    -0.10300
C1053       C  0.60908965  0.18269719  0.15410350    -0.29100
N1054       N  0.64869535  0.15492705  0.23654148    -0.45700
C1055       C  0.63389830  0.14448137  0.25590306    -0.05000
C1056       C  0.60562485  0.14902451  0.25292819    -0.22400
H1057       H  0.55912289  0.15978011  0.22109775     0.19500
H1058       H  0.65559486  0.17573303  0.18772069     0.18300
H1059       H  0.62571890  0.18776302  0.14106113     0.14500
H1060       H  0.58888619  0.14028222  0.26338618     0.14400
H1061       H  0.54463229  0.17166081  0.17066396     0.32600
H1062       H  0.66972917  0.15230701  0.23252391     0.35300
C1063       C  0.62635388  0.31061396  0.97458161     0.20900
C1064       C  0.63165345  0.28529076  0.97493812    -0.39000
C1065       C  0.60841040  0.26997085  0.97210677     0.19900
C1066       C  0.58187679  0.27914868  0.96930353     0.22500
C1067       C  0.57663977  0.30442699  0.96870521    -0.39500
C1068       C  0.59991134  0.31976476  0.97115692     0.21300
N1069       N  0.64390454  0.32866267  0.98153340    -0.32700
C1070       C  0.62860375  0.34950061  0.98307675    -0.10300
C1071       C  0.60120625  0.34465767  0.97565123    -0.29100
N1072       N  0.56352758  0.26088762  0.96553017    -0.45700
C1073       C  0.57848355  0.23990164  0.96569052    -0.05000
C1074       C  0.60654895  0.24483235  0.96986127    -0.22400
H1075       H  0.65226900  0.27803917  0.97793875     0.19500
H1076       H  0.55584896  0.31165447  0.96694465     0.18300
H1077       H  0.58359906  0.35670513  0.97830317     0.14500
H1078       H  0.62354639  0.23191229  0.96922173     0.14400
H1079       H  0.66401277  0.32622560  0.98857133     0.32600
H1080       H  0.54247855  0.26270066  0.96122859     0.35300
C1081       C  0.57628338  0.17232172  0.85243480     0.20900
C1082       C  0.56944779  0.16224566  0.82810768    -0.39000
C1083       C  0.59147227  0.15978196  0.81035247     0.19900
C1084       C  0.61836354  0.16658574  0.81645755     0.22500
C1085       C  0.62486960  0.17786438  0.84029641    -0.39500
C1086       C  0.60282974  0.18042348  0.85797206     0.21300
N1087       N  0.55980890  0.17431138  0.87352484    -0.32700
C1088       C  0.57598960  0.18404077  0.89247937    -0.10300
C1089       C  0.60280801  0.18833970  0.88343309    -0.29100
N1090       N  0.63646715  0.15689297  0.79926187    -0.45700
C1091       C  0.62107880  0.14362649  0.78221539    -0.05000
C1092       C  0.59283243  0.14587494  0.78801712    -0.22400
H1093       H  0.54897476  0.15508237  0.82401801     0.19500
H1094       H  0.64596805  0.18244809  0.84555427     0.18300
H1095       H  0.62023056  0.19541804  0.89438848     0.14500
H1096       H  0.57610472  0.13512632  0.77977370     0.14400
H1097       H  0.53897270  0.16928899  0.87498936     0.32600
H1098       H  0.65803439  0.15670172  0.80104339     0.35300
C1099       C  0.60024039  0.92201583  0.95228315     0.20900
C1100       C  0.62354561  0.90659967  0.95065298    -0.39000
C1101       C  0.61861237  0.88155750  0.95468426     0.19900
C1102       C  0.59225068  0.87259656  0.95922605     0.22500
C1103       C  0.56885546  0.88802732  0.96033950    -0.39500
C1104       C  0.57394862  0.91314936  0.95724553     0.21300
N1105       N  0.59957189  0.94639001  0.94924741    -0.32700
C1106       C  0.57277562  0.95331755  0.95270326    -0.10300
C1107       C  0.55610201  0.93306146  0.95794216    -0.29100
N1108       N  0.59354720  0.84945931  0.96774750    -0.45700
C1109       C  0.62091501  0.84383219  0.97015721    -0.05000
C1110       C  0.63711429  0.86314013  0.96090997    -0.22400
H1111       H  0.64426066  0.91379379  0.94801562     0.19500
H1112       H  0.54844696  0.88115353  0.96512529     0.18300
H1113       H  0.53379759  0.93272829  0.96017846     0.14500
H1114       H  0.65921630  0.86539740  0.96363357     0.14400
H1115       H  0.61624139  0.95761962  0.94421043     0.32600
H1116       H  0.57694872  0.83978989  0.97576276     0.35300
C1117       C  0.57481654  0.02775367  0.84806616     0.20900
C1118       C  0.56829741  0.03782852  0.82389635    -0.39000
C1119       C  0.59033250  0.03944661  0.80613346     0.19900
C1120       C  0.61698131  0.03191255  0.81212798     0.22500
C1121       C  0.62305863  0.02040701  0.83570390    -0.39500
C1122       C  0.60100086  0.01875641  0.85338997     0.21300
N1123       N  0.55819412  0.02604728  0.86901876    -0.32700
C1124       C  0.57393164  0.01553640  0.88760719    -0.10300
C1125       C  0.60061245  0.01059461  0.87855031    -0.29100
N1126       N  0.63547430  0.04157491  0.79548740    -0.45700
C1127       C  0.62053302  0.05554822  0.77899678    -0.05000
C1128       C  0.59220264  0.05360858  0.78433592    -0.22400
H1129       H  0.54813406  0.04564493  0.81995993     0.19500
H1130       H  0.64395090  0.01512459  0.84085175     0.18300
H1131       H  0.61755534  0.00241169  0.88915878     0.14500
H1132       H  0.57588445  0.06501955  0.77658993     0.14400
H1133       H  0.53743250  0.03131620  0.87047037     0.32600
H1134       H  0.65701299  0.04147152  0.79757327     0.35300
C1135       C  0.59826340  0.04206201  0.23061485     0.20900
C1136       C  0.57491393  0.04093813  0.21432055    -0.39000
C1137       C  0.57894881  0.02959103  0.19007745     0.19900
C1138       C  0.60401706  0.01912205  0.18313808     0.22500
C1139       C  0.62716953  0.01962380  0.19972404    -0.39500
C1140       C  0.62347991  0.03187079  0.22360678     0.21300
N1141       N  0.60125864  0.05665528  0.25148992    -0.32700
C1142       C  0.62866665  0.05663533  0.25752347    -0.10300
C1143       C  0.64309465  0.04073758  0.24094873    -0.29100
N1144       N  0.60293340  0.01041867  0.15867016    -0.45700
C1145       C  0.57724276  0.01586767  0.14971634    -0.05000
C1146       C  0.56161802  0.02787072  0.16874075    -0.22400
H1147       H  0.55572198  0.05014956  0.21922951     0.19500
H1148       H  0.64718480  0.01271590  0.19359568     0.18300
H1149       H  0.66537186  0.03922215  0.23900086     0.14500
H1150       H  0.54051074  0.03439436  0.16718070     0.14400
H1151       H  0.58619310  0.06854680  0.25893363     0.32600
H1152       H  0.61889200  0.00169524  0.14844504     0.35300
C1153       C  0.59281766  0.87379248  0.07306429     0.20900
C1154       C  0.56991275  0.88967733  0.07232032    -0.39000
C1155       C  0.57580100  0.91456176  0.07618162     0.19900
C1156       C  0.60233271  0.92275322  0.08150255     0.22500
C1157       C  0.62511510  0.90688387  0.08277467    -0.39500
C1158       C  0.61940770  0.88210897  0.07803904     0.21300
N1159       N  0.59352276  0.85083040  0.06375141    -0.32700
C1160       C  0.62075650  0.84484889  0.06137733    -0.10300
C1161       C  0.63744714  0.86352516  0.07134747    -0.29100
N1162       N  0.60241646  0.94700834  0.08544304    -0.45700
C1163       C  0.57585126  0.95445625  0.08230556    -0.05000
C1164       C  0.55857504  0.93479256  0.07618573    -0.22400
H1165       H  0.54934576  0.88333220  0.06725417     0.19500
H1166       H  0.64601717  0.91355855  0.08570440     0.18300
H1167       H  0.65964081  0.86532586  0.06884412     0.14500
H1168       H  0.53627592  0.93501609  0.07394063     0.14400
H1169       H  0.57677455  0.84155002  0.05538143     0.32600
H1170       H  0.61936236  0.95777538  0.09093222     0.35300
C1171       C  0.02947467  0.48287844  0.20919175     0.20900
C1172       C  0.02882553  0.46100710  0.22326623    -0.39000
C1173       C  0.03018177  0.46346740  0.25035990     0.19900
C1174       C  0.03199106  0.48608204  0.26249651     0.22500
C1175       C  0.03308332  0.50802068  0.24831611    -0.39500
C1176       C  0.03147893  0.50555396  0.22114707     0.21300
N1177       N  0.03020367  0.48512980  0.18330245    -0.32700
C1178       C  0.03266937  0.50937854  0.17843871    -0.10300
C1179       C  0.03322765  0.52284890  0.20162830    -0.29100
N1180       N  0.02731914  0.48389155  0.28812366    -0.45700
C1181       C  0.02159162  0.45985558  0.29232289    -0.05000
C1182       C  0.02442920  0.44645457  0.26925973    -0.22400
H1183       H  0.02654749  0.44335892  0.21379640     0.19500
H1184       H  0.03390653  0.52575982  0.25779684     0.18300
H1185       H  0.03727783  0.54222496  0.20395006     0.14500
H1186       H  0.01755283  0.42783880  0.26585051     0.14400
H1187       H  0.03102106  0.47082727  0.16971678     0.32600
H1188       H  0.02392498  0.49840246  0.30109500     0.35300
C1189       C  0.13265525  0.47038366  0.10824890     0.20900
C1190       C  0.14520239  0.44730403  0.10489571    -0.39000
C1191       C  0.17291850  0.44749753  0.09631798     0.19900
C1192       C  0.18711996  0.46914221  0.09221225     0.22500
C1193       C  0.17479461  0.49217030  0.09631329    -0.39500
C1194       C  0.14686709  0.49195353  0.10389590     0.21300
N1195       N  0.10613450  0.47511201  0.11461773    -0.32700
C1196       C  0.10325919  0.49980701  0.11370578    -0.10300
C1197       C  0.12822986  0.51098916  0.10708843    -0.29100
N1198       N  0.21093117  0.46480945  0.07946973    -0.45700
C1199       C  0.21192882  0.44035371  0.07471424    -0.05000
C1200       C  0.18876378  0.42884132  0.08550736    -0.22400
H1201       H  0.13361471  0.43046166  0.10696021     0.19500
H1202       H  0.18551326  0.50902741  0.09184107     0.18300
H1203       H  0.13230006  0.53038253  0.10532058     0.14500
H1204       H  0.18215661  0.41016316  0.08206359     0.14400
H1205       H  0.09080438  0.46233089  0.11918229     0.32600
H1206       H  0.22388698  0.47808776  0.07142798     0.35300
C1207       C  0.18203092  0.45280774  0.95861067     0.20900
C1208       C  0.15554018  0.45027121  0.94762843    -0.39000
C1209       C  0.13974376  0.47179461  0.94617867     0.19900
C1210       C  0.14951197  0.49421209  0.95489553     0.22500
C1211       C  0.17649641  0.49696851  0.96463068    -0.39500
C1212       C  0.19236671  0.47544200  0.96608862     0.21300
N1213       N  0.19795884  0.43467486  0.96797486    -0.32700
C1214       C  0.21841266  0.44573587  0.98177243    -0.10300
C1215       C  0.21612105  0.47119508  0.98009564    -0.29100
N1216       N  0.12973263  0.51153925  0.95308013    -0.45700
C1217       C  0.10735626  0.50004436  0.94280750    -0.05000
C1218       C  0.11287082  0.47531509  0.93813506    -0.22400
H1219       H  0.14701422  0.43255960  0.94247955     0.19500
H1220       H  0.18390868  0.51429340  0.97224447     0.18300
H1221       H  0.22710349  0.48455504  0.99184018     0.14500
H1222       H  0.09897316  0.46173869  0.92996145     0.14400
H1223       H  0.19293137  0.41607622  0.96808810     0.32600
H1224       H  0.13151391  0.53006554  0.95795818     0.35300
C1225       C  0.03546923  0.50343206  0.83498428     0.20900
C1226       C  0.03485480  0.50782603  0.80801830    -0.39000
C1227       C  0.03561478  0.48690402  0.79166330     0.19900
C1228       C  0.03675202  0.46344508  0.80148276     0.22500
C1229       C  0.03805440  0.45913536  0.82829857    -0.39500
C1230       C  0.03706032  0.47990231  0.84449902     0.21300
N1231       N  0.03608183  0.52001793  0.85469670    -0.32700
C1232       C  0.03809857  0.50676633  0.87686063    -0.10300
C1233       C  0.03851529  0.48174448  0.87108926    -0.29100
N1234       N  0.03071731  0.44675221  0.78294235    -0.45700
C1235       C  0.02469908  0.45938234  0.76108243    -0.05000
C1236       C  0.02913432  0.48452686  0.76559591    -0.22400
H1237       H  0.03274319  0.52611038  0.80033956     0.19500
H1238       H  0.03826847  0.44079553  0.83608710     0.18300
H1239       H  0.04175941  0.46689552  0.88454893     0.14500
H1240       H  0.02225296  0.49927253  0.75324964     0.14400
H1241       H  0.03702362  0.53903713  0.85304203     0.32600
H1242       H  0.02620430  0.42833973  0.78629677     0.35300
C1243       C  0.81186956  0.48057694  0.94265216     0.20900
C1244       C  0.79616880  0.45889646  0.94136385    -0.39000
C1245       C  0.77069763  0.45928643  0.95463549     0.19900
C1246       C  0.76131771  0.48010703  0.96734765     0.22500
C1247       C  0.77682370  0.50192255  0.96822480    -0.39500
C1248       C  0.80274699  0.50118177  0.95588505     0.21300
N1249       N  0.83742778  0.48424361  0.93310509    -0.32700
C1250       C  0.84496865  0.50713831  0.94070612    -0.10300
C1251       C  0.82392170  0.51830576  0.95514439    -0.29100
N1252       N  0.73950858  0.47474998  0.98241148    -0.45700
C1253       C  0.73546781  0.45017298  0.98045738    -0.05000
C1254       C  0.75407769  0.44000208  0.96255721    -0.22400
H1255       H  0.80416966  0.44238155  0.93234454     0.19500
H1256       H  0.77018291  0.51765408  0.97953915     0.18300
H1257       H  0.82399623  0.53647455  0.96367887     0.14500
H1258       H  0.75815419  0.42072755  0.95941242     0.14400
H1259       H  0.84925976  0.47176630  0.92231941     0.32600
H1260       H  0.73062161  0.48651296  0.99621049     0.35300
C1261       C  0.91758998  0.50365074  0.83587543     0.20900
C1262       C  0.91429128  0.50547584  0.80879421    -0.39000
C1263       C  0.91659762  0.48342487  0.79455531     0.19900
C1264       C  0.92187928  0.46131021  0.80644119     0.22500
C1265       C  0.92484286  0.45947252  0.83348025    -0.39500
C1266       C  0.92277065  0.48144849  0.84759803     0.21300
N1267       N  0.91444243  0.52148510  0.85392830    -0.32700
C1268       C  0.91774739  0.51044823  0.87725518    -0.10300
C1269       C  0.92319535  0.48556240  0.87398182    -0.29100
N1270       N  0.92891020  0.44416812  0.78875378    -0.45700
C1271       C  0.92914407  0.45538240  0.76532570    -0.05000
C1272       C  0.92023577  0.47969718  0.76819405    -0.22400
H1273       H  0.91102101  0.52288903  0.79940825     0.19500
H1274       H  0.92961362  0.44228892  0.84278268     0.18300
H1275       H  0.92448790  0.47187860  0.88902353     0.14500
H1276       H  0.92217650  0.49397801  0.75384758     0.14400
H1277       H  0.90830608  0.53953036  0.85066636     0.32600
H1278       H  0.93765721  0.42716801  0.79298472     0.35300
C1279       C  0.91870257  0.48741205  0.26435543     0.20900
C1280       C  0.91765398  0.50942843  0.25016768    -0.39000
C1281       C  0.91836670  0.50701806  0.22288408     0.19900
C1282       C  0.91950095  0.48431708  0.21090727     0.22500
C1283       C  0.91996540  0.46240667  0.22498622    -0.39500
C1284       C  0.91954176  0.46480138  0.25214447     0.21300
N1285       N  0.92424422  0.48503127  0.28984356    -0.32700
C1286       C  0.92949601  0.46085572  0.29390716    -0.10300
C1287       C  0.92556577  0.44762229  0.27085919    -0.29100
N1288       N  0.91888124  0.48660931  0.18499720    -0.45700
C1289       C  0.91744990  0.51091269  0.17998624    -0.05000
C1290       C  0.91723179  0.52438762  0.20325537    -0.22400
H1291       H  0.91771144  0.52716148  0.25969207     0.19500
H1292       H  0.92168299  0.44474737  0.21543369     0.18300
H1293       H  0.93187302  0.42889622  0.26717304     0.14500
H1294       H  0.91433158  0.54392277  0.20556432     0.14400
H1295       H  0.92844107  0.49944946  0.30271229     0.32600
H1296       H  0.91791995  0.47231231  0.17141684     0.35300
C1297       C  0.77946662  0.45150843  0.09281887     0.20900
C1298       C  0.80695074  0.44915441  0.10144091    -0.39000
C1299       C  0.82185245  0.47109914  0.10429041     0.19900
C1300       C  0.81043185  0.49367591  0.09867761     0.33900
C1301       C  0.78273924  0.49609476  0.09089328    -0.39500
C1302       C  0.76765253  0.47419989  0.08851555     0.21300
N1303       N  0.76310570  0.43353311  0.08340747    -0.32700
C1304       C  0.74077864  0.44481465  0.07291721    -0.10300
C1305       C  0.74252117  0.47014684  0.07672449    -0.29100
N1306       N  0.82915406  0.51168152  0.10211913    -0.45700
C1307       C  0.85248565  0.50046424  0.11044428    -0.05000
C1308       C  0.84875982  0.47520333  0.11206803    -0.22400
H1309       H  0.81649870  0.43147336  0.10439107     0.19500
H1310       H  0.77392056  0.51365374  0.08591819     0.18300
H1311       H  0.72980361  0.48388913  0.06750259     0.14500
H1312       H  0.86363142  0.46174551  0.11854598     0.14400
H1313       H  0.76862444  0.41515644  0.08109891     0.32600
H1314       H  0.82598093  0.53045827  0.09990216     0.35300
C1315       C  0.04015194  0.71745432  0.21401634     0.20900
C1316       C  0.04180914  0.73888689  0.22916483    -0.39000
C1317       C  0.03738470  0.73615894  0.25589457     0.19900
C1318       C  0.03195302  0.71360082  0.26674720     0.22500
C1319       C  0.03093049  0.69192226  0.25155056    -0.39500
C1320       C  0.03489859  0.69476191  0.22458573     0.21300
N1321       N  0.04368962  0.71561637  0.18825961    -0.32700
C1322       C  0.04064687  0.69164252  0.18181197    -0.10300
C1323       C  0.03488482  0.67788846  0.20406575    -0.29100
N1324       N  0.02232552  0.71655043  0.29111655    -0.45700
C1325       C  0.02033753  0.74113529  0.29550542    -0.05000
C1326       C  0.03095171  0.75383981  0.27428778    -0.22400
H1327       H  0.04479502  0.75667648  0.22049317     0.19500
H1328       H  0.02561556  0.67441113  0.25988690     0.18300
H1329       H  0.03278271  0.65821719  0.20533456     0.14500
H1330       H  0.02846403  0.77318924  0.27057449     0.14400
H1331       H  0.04899417  0.72986394  0.17577475     0.32600
H1332       H  0.01309962  0.70281851  0.30220168     0.35300
C1333       C  0.14994064  0.70537448  0.10191584     0.20900
C1334       C  0.17771343  0.70235388  0.09420504    -0.39000
C1335       C  0.19335919  0.72398168  0.09166079     0.19900
C1336       C  0.18203678  0.74692515  0.09595470     0.22500
C1337       C  0.15449799  0.74988085  0.10443751    -0.39500
C1338       C  0.13900500  0.72826712  0.10729351     0.21300
N1339       N  0.13061272  0.68780446  0.10520630    -0.32700
C1340       C  0.10731735  0.69963719  0.11305778    -0.10300
C1341       C  0.11179495  0.72484592  0.11467146    -0.29100
N1342       N  0.19891930  0.76451053  0.08669972    -0.45700
C1343       C  0.22118095  0.75284703  0.07623479    -0.05000
C1344       C  0.21870679  0.72753245  0.07985272    -0.22400
H1345       H  0.18616540  0.68454892  0.08932654     0.19500
H1346       H  0.14532160  0.76778274  0.10724480     0.18300
H1347       H  0.09713355  0.73875776  0.12075308     0.14500
H1348       H  0.23116503  0.71347050  0.07058352     0.14400
H1349       H  0.13330167  0.66893105  0.10302672     0.32600
H1350       H  0.19377124  0.78293924  0.08444718     0.35300
C1351       C  0.91249301  0.72114418  0.20747554     0.20900
C1352       C  0.91116023  0.74293587  0.22207397    -0.39000
C1353       C  0.91179643  0.74038022  0.24915333     0.19900
C1354       C  0.91341428  0.71770674  0.26077015     0.22500
C1355       C  0.91434952  0.69578960  0.24607874    -0.39500
C1356       C  0.91418048  0.69840029  0.21890336     0.21300
N1357       N  0.91112381  0.71889737  0.18156283    -0.32700
C1358       C  0.91203041  0.69458475  0.17609095    -0.10300
C1359       C  0.91429832  0.68108134  0.19895625    -0.29100
N1360       N  0.91973331  0.72030715  0.28606144    -0.45700
C1361       C  0.92357360  0.74469399  0.29046605    -0.05000
C1362       C  0.91732169  0.75780780  0.26805270    -0.22400
H1363       H  0.91087634  0.76070384  0.21293296     0.19500
H1364       H  0.91659541  0.67809524  0.25513722     0.18300
H1365       H  0.91362908  0.66138260  0.20087239     0.14500
H1366       H  0.92220743  0.77683714  0.26454096     0.14400
H1367       H  0.90815216  0.73308170  0.16836122     0.32600
H1368       H  0.92593316  0.70611311  0.29823808     0.35300
C1369       C  0.77187914  0.74741200  0.08550255     0.20900
C1370       C  0.79919676  0.75069863  0.09441534    -0.39000
C1371       C  0.81421517  0.72917681  0.09938047     0.19900
C1372       C  0.80296022  0.70611213  0.09570379     0.22500
C1373       C  0.77533963  0.70285195  0.08782215    -0.39500
C1374       C  0.76025651  0.72434960  0.08296961     0.21300
N1375       N  0.75560425  0.76436011  0.07428301    -0.32700
C1376       C  0.73354437  0.75204971  0.06435048    -0.10300
C1377       C  0.73543420  0.72714915  0.07016689    -0.29100
N1378       N  0.82197017  0.68859230  0.10030437    -0.45700
C1379       C  0.84544159  0.70060164  0.10723493    -0.05000
C1380       C  0.84133932  0.72591140  0.10707546    -0.22400
H1381       H  0.80865699  0.76862788  0.09579094     0.19500
H1382       H  0.76670187  0.68485566  0.08423864     0.18300
H1383       H  0.72285884  0.71256848  0.06205173     0.14500
H1384       H  0.85626075  0.74000555  0.11197222     0.14400
H1385       H  0.76094779  0.78255486  0.07070442     0.32600
H1386       H  0.81901144  0.66966846  0.09936935     0.35300
C1387       C  0.91615611  0.71682790  0.84571747     0.20900
C1388       C  0.91400556  0.73903367  0.83227874    -0.39000
C1389       C  0.91557268  0.73745989  0.80507789     0.19900
C1390       C  0.91888256  0.71532233  0.79226513     0.22500
C1391       C  0.92043401  0.69297187  0.80577741    -0.39500
C1392       C  0.91928431  0.69460445  0.83307555     0.21300
N1393       N  0.91420525  0.71359278  0.87145949    -0.32700
C1394       C  0.91615447  0.68914701  0.87564050    -0.10300
C1395       C  0.91960293  0.67660579  0.85204536    -0.29100
N1396       N  0.92609293  0.71908241  0.76735233    -0.45700
C1397       C  0.92864763  0.74374034  0.76436775    -0.05000
C1398       C  0.92075400  0.75573501  0.78729973    -0.22400
H1399       H  0.91249064  0.75643950  0.84237854     0.19500
H1400       H  0.92387811  0.67571521  0.79581750     0.18300
H1401       H  0.91968678  0.65699277  0.84896635     0.14500
H1402       H  0.92450649  0.77479101  0.79204071     0.14400
H1403       H  0.90997265  0.72716209  0.88533387     0.32600
H1404       H  0.93369887  0.70562132  0.75468103     0.35300
C1405       C  0.81132762  0.71789069  0.94061651     0.20900
C1406       C  0.79618742  0.73983082  0.93993914    -0.39000
C1407       C  0.76891631  0.73862078  0.94935030     0.19900
C1408       C  0.75751121  0.71694067  0.95809461     0.22500
C1409       C  0.77250402  0.69485410  0.95815856    -0.39500
C1410       C  0.80006786  0.69627313  0.94960158     0.21300
N1411       N  0.83790744  0.71461334  0.93382395    -0.32700
C1412       C  0.84390632  0.69087139  0.93887059    -0.10300
C1413       C  0.82085141  0.67876851  0.94892991    -0.29100
N1414       N  0.73384579  0.72136243  0.97098247    -0.45700
C1415       C  0.73049313  0.74604374  0.97144921    -0.05000
C1416       C  0.75153511  0.75737076  0.95730238    -0.22400
H1417       H  0.80561633  0.75695017  0.93423455     0.19500
H1418       H  0.76401992  0.67823338  0.96626094     0.18300
H1419       H  0.81926527  0.65969366  0.95422655     0.14500
H1420       H  0.75635658  0.77672105  0.95721881     0.14400
H1421       H  0.85123220  0.72774824  0.92604906     0.32600
H1422       H  0.72303041  0.70868730  0.98223302     0.35300
C1423       C  0.19520352  0.72099018  0.96997013     0.20900
C1424       C  0.18007710  0.69902670  0.96947874    -0.39000
C1425       C  0.15356768  0.70031639  0.95857564     0.19900
C1426       C  0.14331328  0.72172631  0.94814665     0.22500
C1427       C  0.15843049  0.74374329  0.94861680    -0.39500
C1428       C  0.18474229  0.74261255  0.96019392     0.21300
N1429       N  0.21831473  0.72526632  0.98361613    -0.32700
C1430       C  0.22231888  0.74985545  0.98357064    -0.10300
C1431       C  0.20211799  0.76127907  0.96849758    -0.29100
N1432       N  0.11775410  0.71807440  0.93863224    -0.45700
C1433       C  0.11150906  0.69432022  0.94344795    -0.05000
C1434       C  0.13321348  0.68264595  0.95612513    -0.22400
H1435       H  0.18776832  0.68248059  0.97836108     0.19500
H1436       H  0.14975806  0.76074408  0.94167980     0.18300
H1437       H  0.19798431  0.78071685  0.96749570     0.14500
H1438       H  0.13427483  0.66369894  0.96200373     0.14400
H1439       H  0.22845187  0.71259908  0.99537561     0.32600
H1440       H  0.10525692  0.73094878  0.92938285     0.35300
C1441       C  0.04069502  0.69876181  0.83619421     0.20900
C1442       C  0.04149750  0.69697149  0.80885593    -0.39000
C1443       C  0.03937188  0.71921841  0.79520278     0.19900
C1444       C  0.03678105  0.74152940  0.80786518     0.22500
C1445       C  0.03695014  0.74335736  0.83511062    -0.39500
C1446       C  0.03858810  0.72118951  0.84864024     0.21300
N1447       N  0.04280210  0.68051751  0.85372162    -0.32700
C1448       C  0.04183157  0.69153080  0.87749578    -0.10300
C1449       C  0.03918148  0.71684225  0.87492342    -0.29100
N1450       N  0.02864009  0.75902640  0.79124463    -0.45700
C1451       C  0.02520673  0.74794413  0.76776651    -0.05000
C1452       C  0.03298954  0.72323431  0.76940415    -0.22400
H1453       H  0.04225646  0.67945314  0.79891166     0.19500
H1454       H  0.03421621  0.76069722  0.84510859     0.18300
H1455       H  0.03975043  0.73044187  0.89033018     0.14500
H1456       H  0.02871457  0.70911489  0.75508182     0.14400
H1457       H  0.04641301  0.66201574  0.84974297     0.32600
H1458       H  0.02146479  0.77640145  0.79657204     0.35300
loop_ 
_geom_bond_atom_site_label_1 
_geom_bond_atom_site_label_2 
_geom_bond_distance 
_geom_bond_site_symmetry_2 
_ccdc_geom_bond_type 
C1            N2   1.358       .  A
C1            N6   1.345       .  A
C1         C1433   1.469       .  S
N2            C3   1.367       .  A
C3            N4   1.377       .  A
C3           C51   1.499       .  S
N4            C5   1.374       .  A
C5            N6   1.349       .  A
C5         C1448   1.479       .  S
C7            N8   1.360       .  A
C7           N12   1.343       .  A
C7         C1412   1.471       .  S
N8            C9   1.371       .  A
C9           N10   1.377       .  A
C9           C80   1.501       .  S
N10          C11   1.373       .  A
C11          N12   1.347       .  A
C11        C1394   1.477       .  S
C13          N14   1.372       .  A
C13          N18   1.351       .  A
C13        C1358   1.475       .  S
N14          C15   1.374       .  A
C15          N16   1.371       .  A
C15          C71   1.500       .  S
N16          C17   1.360       .  A
C17          N18   1.345       .  A
C17        C1379   1.476       .  S
C19          N20   1.376       .  A
C19          N24   1.352       .  A
C19        C1322   1.483       .  S
N20          C21   1.379       .  A
C21          N22   1.369       .  A
C21          C60   1.503       .  S
N22          C23   1.358       .  A
C23          N24   1.346       .  A
C23        C1340   1.475       .  S
C25          N26   1.351       .  A
C25          N30   1.375       .  A
C25        C1289   1.478       .  S
N26          C27   1.345       .  A
C27          N28   1.355       .  A
C27        C1307   1.467       .  S
N28          C29   1.367       .  A
C29          N30   1.377       .  A
C29          C77   1.496       .  S
C31          N32   1.347       .  A
C31          N36   1.361       .  A
C31        C1250   1.475       .  S
N32          C33   1.350       .  A
C33          N34   1.367       .  A
C33        C1268   1.468       .  S
N34          C35   1.371       .  A
C35          N36   1.370       .  A
C35          C74   1.490       .  S
C37          N38   1.344       .  A
C37          N42   1.359       .  A
C37        C1217   1.472       .  S
N38          C39   1.349       .  A
C39          N40   1.374       .  A
C39        C1232   1.480       .  S
N40          C41   1.378       .  A
C41          N42   1.370       .  A
C41          C57   1.501       .  S
C43          N44   1.370       .  A
C43          N48   1.350       .  A
C43        C1178   1.468       .  S
N44          C45   1.372       .  A
C45          N46   1.371       .  A
C45          C54   1.496       .  S
N46          C47   1.360       .  A
C47          N48   1.344       .  A
C47        C1196   1.473       .  S
O49         Zr61   2.459   1_556  S
O49          C51   1.293       .  A
O50         Zr87   2.477   1_455  S
O50          C51   1.296       .  A
O52         Zr64   2.440       .  S
O52          C54   1.288       .  A
O53         Zr88   2.489   1_455  S
O53          C54   1.299       .  A
O55         Zr64   2.459   1_556  S
O55          C57   1.292       .  A
O56         Zr87   2.481   1_455  S
O56          C57   1.296       .  A
O58         Zr61   2.466       .  S
O58          C60   1.294       .  A
O59         Zr88   2.479   1_455  S
O59          C60   1.296       .  A
Zr61         O62   2.434       .  S
Zr61         O63   2.434       .  S
Zr61         O67   2.378       .  S
Zr61         O68   2.371       .  S
Zr61         O91   2.375   1_455  S
Zr61         O93   2.380   1_455  S
O62         H105   0.990       .  S
O63         H104   0.990       .  S
O63         H108   0.990       .  S
Zr64         O65   2.437       .  S
Zr64         O66   2.434       .  S
Zr64         O68   2.376       .  S
Zr64         O67   2.367       .  S
Zr64         O92   2.371   1_455  S
Zr64         O94   2.379   1_455  S
O65         H106   0.990       .  S
O65         H109   0.990       .  S
O66          H99   0.990       .  S
O67         Zr87   2.405   1_454  S
O68         Zr88   2.410   1_455  S
O68          H95   0.966       .  S
O69         Zr81   2.440       .  S
O69          C71   1.289       .  A
O70         Zr88   2.497       .  S
O70          C71   1.300       .  A
O72         Zr84   2.443   1_556  S
O72          C74   1.289       .  A
O73         Zr87   2.473       .  S
O73          C74   1.296       .  A
O75         Zr84   2.450       .  S
O75          C77   1.291       .  A
O76         Zr88   2.475       .  S
O76          C77   1.295       .  A
O78         Zr81   2.458   1_556  S
O78          C80   1.292       .  A
O79         Zr87   2.481       .  S
O79          C80   1.296       .  A
Zr81         O82   2.436       .  S
Zr81         O83   2.436       .  S
Zr81         O89   2.376       .  S
Zr81         O90   2.367       .  S
Zr81         O93   2.370       .  S
Zr81         O91   2.379       .  S
O82         H102   0.990       .  S
O82         H107   0.990       .  S
O83         H103   0.990       .  S
Zr84         O85   2.434       .  S
Zr84         O86   2.435       .  S
Zr84         O90   2.373       .  S
Zr84         O89   2.368       .  S
Zr84         O94   2.365       .  S
Zr84         O92   2.371       .  S
O85         H101   0.990       .  S
O86         H100   0.990       .  S
O86         H110   0.990       .  S
Zr87         O90   2.399   1_556  S
Zr87         O92   2.402   1_556  S
Zr87         O93   2.405   1_556  S
Zr88         O89   2.405       .  S
Zr88         O91   2.403       .  S
Zr88         O94   2.400       .  S
O89          H97   0.966       .  S
O92          H96   0.966   1_554  S
O93          H98   0.966   1_554  S
C111        N112   1.360       .  A
C111        N116   1.347   1_545  A
C111       C1145   1.473       .  S
N112        C113   1.369       .  A
C113        N114   1.368   1_545  A
C113        C161   1.488       .  S
N114        C115   1.367       .  A
C115        N116   1.351       .  A
C115       C1163   1.464       .  S
C117        N118   1.346   1_545  A
C117        N122   1.358       .  A
C117       C1124   1.466       .  S
N118        C119   1.348       .  A
C119        N120   1.371       .  A
C119       C1106   1.474       .  S
N120        C121   1.374   1_565  A
C121        N122   1.367       .  A
C121        C190   1.493       .  S
C123        N124   1.366       .  A
C123        N128   1.352       .  A
C123       C1073   1.471       .  S
N124        C125   1.369       .  A
C125        N126   1.367       .  A
C125        C181   1.487       .  S
N126        C127   1.360       .  A
C127        N128   1.351       .  A
C127       C1088   1.473       .  S
C129        N130   1.368       .  A
C129        N134   1.348       .  A
C129       C1037   1.468       .  S
N130        C131   1.371       .  A
C131        N132   1.369       .  A
C131        C170   1.491       .  S
N132        C133   1.359       .  A
C133        N134   1.345       .  A
C133       C1052   1.466       .  S
C135        N136   1.372       .  A
C135        N140   1.350       .  A
C135       C1001   1.476       .  S
N136        C137   1.375       .  A
C137        N138   1.369       .  A
C137        C187   1.495       .  S
N138        C139   1.359       .  A
C139        N140   1.346       .  A
C139       C1019   1.471       .  S
C141        N142   1.348   1_545  A
C141        N146   1.359       .  A
C141        C965   1.471       .  S
N142        C143   1.351       .  A
C143        N144   1.372       .  A
C143        C983   1.478       .  S
N144        C145   1.374   1_565  A
C145        N146   1.367       .  A
C145        C184   1.497       .  S
C147        N148   1.357       .  A
C147        N152   1.344   1_545  A
C147        C929   1.467       .  S
N148        C149   1.368       .  A
C149        N150   1.370   1_545  A
C149        C167   1.484       .  S
N150        C151   1.367       .  A
C151        N152   1.350       .  A
C151        C947   1.465       .  S
C153        N154   1.368       .  A
C153        N158   1.349       .  A
C153        C911   1.470       .  S
N154        C155   1.371       .  A
C155        N156   1.368       .  A
C155        C164   1.489       .  S
N156        C157   1.359       .  A
C157        N158   1.347       .  A
C157        C890   1.469       .  S
O159       Zr171   2.436       .  S
O159        C161   1.288       .  A
O160       Zr197   2.475       .  S
O160        C161   1.296       .  A
O162       Zr174   2.446       .  S
O162        C164   1.289       .  A
O163       Zr198   2.470       .  S
O163        C164   1.294       .  A
O165       Zr174   2.433       .  S
O165        C167   1.287       .  A
O166       Zr197   2.465       .  S
O166        C167   1.294       .  A
O168       Zr171   2.451       .  S
O168        C170   1.290       .  A
O169       Zr198   2.472       .  S
O169        C170   1.295       .  A
Zr171       O172   2.436       .  S
Zr171       O173   2.435       .  S
Zr171       O177   2.369       .  S
Zr171       O178   2.368       .  S
Zr171       O201   2.374       .  S
Zr171       O203   2.381       .  S
O172        H215   0.990       .  S
O173        H214   0.990       .  S
O173        H218   0.990       .  S
Zr174       O175   2.436       .  S
Zr174       O176   2.434       .  S
Zr174       O178   2.365       .  S
Zr174       O177   2.366       .  S
Zr174       O202   2.377       .  S
Zr174       O204   2.374       .  S
O175        H216   0.990       .  S
O175        H219   0.990       .  S
O176        H209   0.990       .  S
O177       Zr197   2.393       .  S
O178       Zr198   2.395       .  S
O178        H205   0.966       .  S
O179       Zr191   2.457       .  S
O179        C181   1.291       .  A
O180       Zr198   2.460   1_556  S
O180        C181   1.293       .  A
O182       Zr194   2.461       .  S
O182        C184   1.293       .  A
O183       Zr197   2.471   1_556  S
O183        C184   1.294       .  A
O185       Zr194   2.460       .  S
O185        C187   1.293       .  A
O186       Zr198   2.469   1_556  S
O186        C187   1.294       .  A
O188       Zr191   2.453       .  S
O188        C190   1.291       .  A
O189       Zr197   2.467   1_556  S
O189        C190   1.294       .  A
Zr191       O192   2.437       .  S
Zr191       O193   2.434       .  S
Zr191       O199   2.372       .  S
Zr191       O200   2.370       .  S
Zr191       O203   2.376   1_556  S
Zr191       O201   2.378   1_556  S
O192        H212   0.990       .  S
O192        H217   0.990       .  S
O193        H213   0.990       .  S
Zr194       O195   2.433       .  S
Zr194       O196   2.434       .  S
Zr194       O200   2.370       .  S
Zr194       O199   2.370       .  S
Zr194       O204   2.377   1_556  S
Zr194       O202   2.375   1_556  S
O195        H211   0.990       .  S
O196        H210   0.990       .  S
O196        H220   0.990       .  S
Zr197       O200   2.396   1_554  S
Zr197       O202   2.403       .  S
Zr197       O203   2.403       .  S
Zr198       O199   2.404   1_554  S
Zr198       O201   2.399       .  S
Zr198       O204   2.399       .  S
O199        H207   0.966       .  S
O202        H206   0.967       .  S
O203        H208   0.967       .  S
C221        N222   1.360       .  A
C221        N226   1.345   1_545  A
C221        C857   1.471       .  S
N222        C223   1.369       .  A
C223        N224   1.375   1_545  A
C223        C277   1.499       .  S
N224        C225   1.371       .  A
C225        N226   1.348       .  A
C225        C872   1.473       .  S
C227        N228   1.347   1_545  A
C227        N232   1.359       .  A
C227        C836   1.471       .  S
N228        C229   1.350       .  A
C229        N230   1.375       .  A
C229        C821   1.484       .  S
N230        C231   1.379   1_565  A
C231        N232   1.368       .  A
C231        C294   1.503       .  S
C233        N234   1.371       .  A
C233        N238   1.351       .  A
C233        C785   1.476       .  S
N234        C235   1.373       .  A
C235        N236   1.368       .  A
C235        C297   1.497       .  S
N236        C237   1.360       .  A
C237        N238   1.347       .  A
C237        C800   1.471       .  S
C239        N240   1.373       .  A
C239        N244   1.352       .  A
C239        C746   1.479       .  S
N240        C241   1.376       .  A
C241        N242   1.365       .  A
C241        C274   1.492       .  S
N242        C243   1.354       .  A
C243        N244   1.345       .  A
C243        C767   1.465       .  S
C245        N246   1.350       .  A
C245        N250   1.375       .  A
C245        C710   1.479       .  S
N246        C247   1.344       .  A
C247        N248   1.359       .  A
C247        C728   1.471       .  S
N248        C249   1.369       .  A
C249        N250   1.377       .  A
C249        C291   1.503       .  S
C251        N252   1.357       .  A
C251        N256   1.346   1_545  A
C251        C674   1.467       .  S
N252        C253   1.367       .  A
C253        N254   1.370   1_545  A
C253        C300   1.487       .  S
N254        C255   1.368       .  A
C255        N256   1.350       .  A
C255        C695   1.467       .  S
C257        N258   1.360       .  A
C257        N262   1.346   1_545  A
C257        C638   1.471       .  S
N258        C259   1.368       .  A
C259        N260   1.374   1_545  A
C259        C271   1.496       .  S
N260        C261   1.370       .  A
C261        N262   1.351       .  A
C261        C659   1.476       .  S
C263        N264   1.350       .  A
C263        N268   1.372       .  A
C263        C602   1.475       .  S
N264        C265   1.345       .  A
C265        N266   1.359       .  A
C265        C623   1.471       .  S
N266        C267   1.370       .  A
C267        N268   1.375       .  A
C267        C280   1.498       .  S
O269       Zr281   2.465       .  S
O269        C271   1.294       .  A
O270       Zr307   2.463   1_455  S
O270        C271   1.293       .  A
O272       Zr284   2.457       .  S
O272        C274   1.293       .  A
O273       Zr308   2.462   1_455  S
O273        C274   1.293       .  A
O275       Zr284   2.464       .  S
O275        C277   1.293       .  A
O276       Zr307   2.474   1_455  S
O276        C277   1.295       .  A
O278       Zr281   2.449       .  S
O278        C280   1.290       .  A
O279       Zr308   2.483   1_455  S
O279        C280   1.297       .  A
Zr281       O282   2.434       .  S
Zr281       O283   2.436       .  S
Zr281       O287   2.370       .  S
Zr281       O288   2.375       .  S
Zr281       O311   2.382   1_455  S
Zr281       O313   2.374   1_455  S
O282        H325   0.990       .  S
O283        H324   0.990   1_455  S
O283        H328   0.990       .  S
Zr284       O285   2.436       .  S
Zr284       O286   2.435       .  S
Zr284       O288   2.374       .  S
Zr284       O287   2.371       .  S
Zr284       O312   2.376   1_455  S
Zr284       O314   2.376   1_455  S
O285        H326   0.990       .  S
O285        H329   0.990       .  S
O286        H319   0.990       .  S
O287       Zr307   2.398   1_455  S
O288       Zr308   2.409   1_455  S
O288        H315   0.966       .  S
O289       Zr301   2.456       .  S
O289        C291   1.291       .  A
O290       Zr308   2.483       .  S
O290        C291   1.296       .  A
O292       Zr304   2.473       .  S
O292        C294   1.295       .  A
O293       Zr307   2.468       .  S
O293        C294   1.293       .  A
O295       Zr304   2.454       .  S
O295        C297   1.292       .  A
O296       Zr308   2.478       .  S
O296        C297   1.296       .  A
O298       Zr301   2.436       .  S
O298        C300   1.288       .  A
O299       Zr307   2.468       .  S
O299        C300   1.294       .  A
Zr301       O302   2.437       .  S
Zr301       O303   2.435       .  S
Zr301       O309   2.366       .  S
Zr301       O310   2.377       .  S
Zr301       O313   2.382       .  S
Zr301       O311   2.371       .  S
O302        H322   0.990       .  S
O302        H327   0.990       .  S
O303        H323   0.990       .  S
Zr304       O305   2.433       .  S
Zr304       O306   2.437       .  S
Zr304       O310   2.370       .  S
Zr304       O309   2.385       .  S
Zr304       O314   2.377       .  S
Zr304       O312   2.372       .  S
O305        H321   0.990       .  S
O306        H320   0.990       .  S
O306        H330   0.990       .  S
Zr307       O310   2.403       .  S
Zr307       O312   2.399       .  S
Zr307       O313   2.405       .  S
Zr308       O309   2.406       .  S
Zr308       O311   2.397       .  S
Zr308       O314   2.407       .  S
O309        H317   0.966       .  S
O312        H316   0.965       .  S
O313        H318   0.965       .  S
C331       C1181   1.480       .  S
C331        C332   1.393   1_455  A
C331        C336   1.415       .  A
C332        C333   1.393       .  A
C332        H351   1.086       .  S
C333       C1286   1.487       .  S
C333        C334   1.419       .  A
C334        C335   1.424       .  A
C334        C341   1.406       .  A
C335        C336   1.422   1_655  A
C335        C340   1.419       .  A
C336        C337   1.406       .  A
C337        C338   1.403       .  A
C337        H347   1.083       .  S
C338        C339   1.406       .  A
C338        H348   1.083       .  S
C339        C340   1.427   1_455  A
C339        C346   1.415       .  A
C340        C343   1.427       .  A
C341        C342   1.405       .  A
C341        H349   1.083       .  S
C342        C343   1.407       .  A
C342        H350   1.083       .  S
C343        C344   1.418       .  A
C344        C713   1.484       .  S
C344        C345   1.389       .  A
C345        C346   1.388   1_655  A
C345        H352   1.088       .  S
C346        C605   1.481       .  S
C353        C926   1.478       .  S
C353        C354   1.389       .  A
C353        C358   1.414       .  A
C354        C355   1.390       .  A
C354        H373   1.087       .  S
C355        C893   1.478       .  S
C355        C356   1.414       .  A
C356        C357   1.426       .  A
C356        C363   1.405       .  A
C357        C358   1.426       .  A
C357        C362   1.420       .  A
C358        C359   1.404       .  A
C359        C360   1.399       .  A
C359        H369   1.083       .  S
C360        C361   1.406       .  A
C360        H370   1.083       .  S
C361        C362   1.427       .  A
C361        C368   1.416       .  A
C362        C365   1.426       .  A
C363        C364   1.398       .  A
C363        H371   1.083       .  S
C364        C365   1.405       .  A
C364        H372   1.083       .  S
C365        C366   1.413       .  A
C366        C620   1.479       .  S
C366        C367   1.391       .  A
C367        C368   1.392       .  A
C367        H374   1.087       .  S
C368        C641   1.482       .  S
C375       C1214   1.481   1_554  S
C375        C376   1.393       .  A
C375        C380   1.416       .  A
C376        C377   1.391       .  A
C376        H395   1.087       .  S
C377       C1199   1.484       .  S
C377        C378   1.417       .  A
C378        C379   1.428       .  A
C378        C385   1.406       .  A
C379        C380   1.426       .  A
C379        C384   1.422       .  A
C380        C381   1.407   1_554  A
C381        C382   1.401       .  A
C381        H391   1.083       .  S
C382        C383   1.405   1_556  A
C382        H392   1.083       .  S
C383        C384   1.427       .  A
C383        C390   1.418       .  A
C384        C387   1.425       .  A
C385        C386   1.401       .  A
C385        H393   1.083       .  S
C386        C387   1.405       .  A
C386        H394   1.083       .  S
C387        C388   1.415       .  A
C388        C908   1.480       .  S
C388        C389   1.391       .  A
C389        C390   1.392       .  A
C389        H396   1.087       .  S
C390        C998   1.487   1_554  S
C397       C1055   1.474       .  S
C397        C398   1.390       .  A
C397        C402   1.408       .  A
C398        C399   1.392       .  A
C398        H417   1.087       .  S
C399       C1142   1.485       .  S
C399        C400   1.418       .  A
C400        C401   1.429       .  A
C400        C407   1.405       .  A
C401        C402   1.424       .  A
C401        C406   1.419       .  A
C402        C403   1.405       .  A
C403        C404   1.395       .  A
C403        H413   1.083       .  S
C404        C405   1.403       .  A
C404        H414   1.083       .  S
C405        C406   1.429       .  A
C405        C412   1.413       .  A
C406        C409   1.425       .  A
C407        C408   1.400       .  A
C407        H415   1.083       .  S
C408        C409   1.406       .  A
C408        H416   1.083       .  S
C409        C410   1.414       .  A
C410        C677   1.480       .  S
C410        C411   1.392       .  A
C411        C412   1.390       .  A
C411        H418   1.086       .  S
C412        C731   1.484       .  S
C419       C1325   1.485   1_655  S
C419        C420   1.390       .  A
C419        C424   1.418       .  A
C420        C421   1.390       .  A
C420        H439   1.087       .  S
C421       C1361   1.484       .  S
C421        C422   1.416       .  A
C422        C423   1.427       .  A
C422        C429   1.406       .  A
C423        C424   1.427       .  A
C423        C428   1.420       .  A
C424        C425   1.406   1_655  A
C425        C426   1.403       .  A
C425        H435   1.083       .  S
C426        C427   1.406   1_455  A
C426        H436   1.083       .  S
C427        C428   1.426       .  A
C427        C434   1.418       .  A
C428        C431   1.425       .  A
C429        C430   1.402       .  A
C429        H437   1.083       .  S
C430        C431   1.406       .  A
C430        H438   1.083       .  S
C431        C432   1.415       .  A
C432        C692   1.481       .  S
C432        C433   1.391       .  A
C433        C434   1.391       .  A
C433        H440   1.087       .  S
C434        C656   1.484   1_655  S
C441       C1016   1.486       .  S
C441        C442   1.393       .  A
C441        C446   1.416       .  A
C442        C443   1.393       .  A
C442        H461   1.085       .  S
C443        C962   1.485       .  S
C443        C444   1.414       .  A
C444        C445   1.426       .  A
C444        C451   1.406       .  A
C445        C446   1.427       .  A
C445        C450   1.420       .  A
C446        C447   1.406       .  A
C447        C448   1.399       .  A
C447        H457   1.083       .  S
C448        C449   1.404       .  A
C448        H458   1.083       .  S
C449        C450   1.426       .  A
C449        C456   1.413       .  A
C450        C453   1.427       .  A
C451        C452   1.398       .  A
C451        H459   1.083       .  S
C452        C453   1.403       .  A
C452        H460   1.083       .  S
C453        C454   1.413       .  A
C454        C854   1.479       .  S
C454        C455   1.389       .  A
C455        C456   1.389       .  A
C455        H462   1.088       .  S
C456        C764   1.477       .  S
C463       C1271   1.480       .  S
C463        C464   1.388       .  A
C463        C468   1.414       .  A
C464        C465   1.391   1_655  A
C464        H483   1.088       .  S
C465       C1235   1.488       .  S
C465        C466   1.422       .  A
C466        C467   1.429   1_455  A
C466        C473   1.406       .  A
C467        C468   1.426       .  A
C467        C472   1.422       .  A
C468        C469   1.405       .  A
C469        C470   1.402       .  A
C469        H479   1.083       .  S
C470        C471   1.405       .  A
C470        H480   1.083       .  S
C471        C472   1.427       .  A
C471        C478   1.417       .  A
C472        C475   1.426   1_655  A
C473        C474   1.406       .  A
C473        H481   1.083       .  S
C474        C475   1.407       .  A
C474        H482   1.083       .  S
C475        C476   1.421       .  A
C476        C749   1.487       .  S
C476        C477   1.392   1_455  A
C477        C478   1.390       .  A
C477        H484   1.086       .  S
C478        C782   1.486       .  S
C485       C1343   1.486       .  S
C485        C486   1.387       .  A
C485        C490   1.419       .  A
C486        C487   1.390       .  A
C486        H505   1.088       .  S
C487       C1430   1.478   1_554  S
C487        C488   1.414       .  A
C488        C489   1.426       .  A
C488        C495   1.406   1_554  A
C489        C490   1.431       .  A
C489        C494   1.422       .  A
C490        C491   1.404       .  A
C491        C492   1.401       .  A
C491        H501   1.083       .  S
C492        C493   1.407       .  A
C492        H502   1.083       .  S
C493        C494   1.423       .  A
C493        C500   1.414       .  A
C494        C497   1.429       .  A
C495        C496   1.401       .  A
C495        H503   1.083       .  S
C496        C497   1.404   1_556  A
C496        H504   1.083       .  S
C497        C498   1.419       .  A
C498        C980   1.493   1_554  S
C498        C499   1.391       .  A
C499        C500   1.394       .  A
C499        H506   1.084       .  S
C500        C944   1.481       .  S
C507       C1253   1.485   1_554  S
C507        C508   1.390       .  A
C507        C512   1.418       .  A
C508        C509   1.389       .  A
C508        H527   1.087       .  S
C509       C1304   1.479       .  S
C509        C510   1.413       .  A
C510        C511   1.427       .  A
C510        C517   1.406       .  A
C511        C512   1.429       .  A
C511        C516   1.420       .  A
C512        C513   1.406   1_554  A
C513        C514   1.403       .  A
C513        H523   1.083       .  S
C514        C515   1.405   1_556  A
C514        H524   1.083       .  S
C515        C516   1.424       .  A
C515        C522   1.415       .  A
C516        C519   1.425       .  A
C517        C518   1.400       .  A
C517        H525   1.083       .  S
C518        C519   1.404       .  A
C518        H526   1.083       .  S
C519        C520   1.415       .  A
C520       C1034   1.481       .  S
C520        C521   1.391       .  A
C521        C522   1.391       .  A
C521        H528   1.087       .  S
C522       C1070   1.481   1_554  S
C529       C1451   1.488       .  S
C529        C530   1.388   1_455  A
C529        C534   1.418       .  A
C530        C531   1.392       .  A
C530        H549   1.088       .  S
C531       C1397   1.484       .  S
C531        C532   1.420       .  A
C532        C533   1.427       .  A
C532        C539   1.408       .  A
C533        C534   1.430   1_655  A
C533        C538   1.423       .  A
C534        C535   1.404       .  A
C535        C536   1.401       .  A
C535        H545   1.083       .  S
C536        C537   1.406       .  A
C536        H546   1.083       .  S
C537        C538   1.425   1_455  A
C537        C544   1.415       .  A
C538        C541   1.430       .  A
C539        C540   1.406       .  A
C539        H547   1.083       .  S
C540        C541   1.406       .  A
C540        H548   1.083       .  S
C541        C542   1.424       .  A
C542        C818   1.491       .  S
C542        C543   1.389       .  A
C543        C544   1.390   1_655  A
C543        H550   1.088       .  S
C544        C875   1.479       .  S
C551       C1127   1.480       .  S
C551        C552   1.393       .  A
C551        C556   1.412       .  A
C552        C553   1.391       .  A
C552        H571   1.086       .  S
C553       C1091   1.485       .  S
C553        C554   1.415       .  A
C554        C555   1.428       .  A
C554        C561   1.404       .  A
C555        C556   1.425       .  A
C555        C560   1.420       .  A
C556        C557   1.406       .  A
C557        C558   1.398       .  A
C557        H567   1.083       .  S
C558        C559   1.405       .  A
C558        H568   1.083       .  S
C559        C560   1.427       .  A
C559        C566   1.414       .  A
C560        C563   1.425       .  A
C561        C562   1.397       .  A
C561        H569   1.083       .  S
C562        C563   1.405       .  A
C562        H570   1.083       .  S
C563        C564   1.413       .  A
C564        C803   1.480       .  S
C564        C565   1.393       .  A
C565        C566   1.392       .  A
C565        H572   1.086       .  S
C566        C839   1.482       .  S
C573       C1415   1.478       .  S
C573        C574   1.393   1_556  A
C573        C578   1.416       .  A
C574        C575   1.389       .  A
C574        H593   1.087       .  S
C575       C1376   1.483       .  S
C575        C576   1.414       .  A
C576        C577   1.429       .  A
C576        C583   1.403       .  A
C577        C578   1.425   1_554  A
C577        C582   1.420       .  A
C578        C579   1.407       .  A
C579        C580   1.402       .  A
C579        H589   1.083       .  S
C580        C581   1.404       .  A
C580        H590   1.083       .  S
C581        C582   1.429   1_556  A
C581        C588   1.419       .  A
C582        C585   1.424       .  A
C583        C584   1.397       .  A
C583        H591   1.083       .  S
C584        C585   1.405       .  A
C584        H592   1.083       .  S
C585        C586   1.411       .  A
C586       C1160   1.478       .  S
C586        C587   1.391       .  A
C587        C588   1.391   1_554  A
C587        H594   1.085       .  S
C588       C1109   1.489       .  S
C595        N601   1.352       .  A
C595        C600   1.382       .  A
C595        C596   1.409       .  A
C596        C597   1.411       .  A
C596        H607   1.082       .  S
C597        C606   1.382       .  A
C597        C598   1.383       .  A
C598        N604   1.345       .  A
C598        C599   1.404       .  A
C599        C600   1.403       .  A
C599        H608   1.082       .  S
C600        C603   1.375       .  A
N601        C602   1.358       .  A
N601        H611   1.044       .  S
C602        C603   1.396       .  A
C603        H609   1.083       .  S
N604        C605   1.357       .  A
N604        H612   1.045       .  S
C605        C606   1.405       .  A
C606        H610   1.083       .  S
C613        N619   1.346       .  A
C613        C618   1.385       .  A
C613        C614   1.405       .  A
C614        C615   1.404       .  A
C614        H625   1.082       .  S
C615        C624   1.376       .  A
C615        C616   1.384       .  A
C616        N622   1.349       .  A
C616        C617   1.404       .  A
C617        C618   1.407       .  A
C617        H626   1.082       .  S
C618        C621   1.377       .  A
N619        C620   1.356       .  A
N619        H629   1.045       .  S
C620        C621   1.398       .  A
C621        H627   1.083       .  S
N622        C623   1.355       .  A
N622        H630   1.044       .  S
C623        C624   1.395       .  A
C624        H628   1.082       .  S
C631        N637   1.343       .  A
C631        C636   1.383       .  A
C631        C632   1.407       .  A
C632        C633   1.405       .  A
C632        H643   1.082       .  S
C633        C642   1.386       .  A
C633        C634   1.384       .  A
C634        N640   1.340       .  A
C634        C635   1.405       .  A
C635        C636   1.401       .  A
C635        H644   1.082       .  S
C636        C639   1.383       .  A
N637        C638   1.357       .  A
N637        H647   1.045       .  S
C638        C639   1.393       .  A
C639        H645   1.082       .  S
N640        C641   1.357       .  A
N640        H648   1.045       .  S
C641        C642   1.397       .  A
C642        H646   1.082       .  S
C649        N655   1.345       .  A
C649        C654   1.383       .  A
C649        C650   1.403       .  A
C650        C651   1.402       .  A
C650        H661   1.082       .  S
C651        C660   1.373       .  A
C651        C652   1.382       .  A
C652        N658   1.353       .  A
C652        C653   1.409       .  A
C653        C654   1.412       .  A
C653        H662   1.082       .  S
C654        C657   1.381       .  A
N655        C656   1.356       .  A
N655        H665   1.045       .  S
C656        C657   1.405       .  A
C657        H663   1.083       .  S
N658        C659   1.359       .  A
N658        H666   1.044       .  S
C659        C660   1.395       .  A
C660        H664   1.083       .  S
C667        N673   1.342       .  A
C667        C672   1.383       .  A
C667        C668   1.406       .  A
C668        C669   1.405       .  A
C668        H679   1.082       .  S
C669        C678   1.383       .  A
C669        C670   1.384       .  A
C670        N676   1.339       .  A
C670        C671   1.404       .  A
C671        C672   1.400       .  A
C671        H680   1.082       .  S
C672        C675   1.381       .  A
N673        C674   1.356       .  A
N673        H683   1.045       .  S
C674        C675   1.392       .  A
C675        H681   1.082       .  S
N676        C677   1.358       .  A
N676        H684   1.045       .  S
C677        C678   1.397       .  A
C678        H682   1.082       .  S
C685        N691   1.343       .  A
C685        C690   1.383       .  A
C685        C686   1.409       .  A
C686        C687   1.405       .  A
C686        H697   1.082       .  S
C687        C696   1.387       .  A
C687        C688   1.382       .  A
C688        N694   1.340       .  A
C688        C689   1.403       .  A
C689        C690   1.402       .  A
C689        H698   1.082       .  S
C690        C693   1.380       .  A
N691        C692   1.361       .  A
N691        H701   1.045       .  S
C692        C693   1.397       .  A
C693        H699   1.083       .  S
N694        C695   1.355       .  A
N694        H702   1.045       .  S
C695        C696   1.396       .  A
C696        H700   1.082       .  S
C703        N709   1.340       .  A
C703        C708   1.381       .  A
C703        C704   1.405       .  A
C704        C705   1.403       .  A
C704        H715   1.082       .  S
C705        C714   1.383       .  A
C705        C706   1.382       .  A
C706        N712   1.344       .  A
C706        C707   1.413       .  A
C707        C708   1.408       .  A
C707        H716   1.082       .  S
C708        C711   1.393       .  A
N709        C710   1.358       .  A
N709        H719   1.045       .  S
C710        C711   1.399       .  A
C711        H717   1.082       .  S
N712        C713   1.363       .  A
N712        H720   1.045       .  S
C713        C714   1.397       .  A
C714        H718   1.083       .  S
C721        N727   1.343       .  A
C721        C726   1.383       .  A
C721        C722   1.407       .  A
C722        C723   1.406       .  A
C722        H733   1.082       .  S
C723        C732   1.386       .  A
C723        C724   1.384       .  A
C724        N730   1.339       .  A
C724        C725   1.405       .  A
C725        C726   1.401       .  A
C725        H734   1.082       .  S
C726        C729   1.383       .  A
N727        C728   1.357       .  A
N727        H737   1.045       .  S
C728        C729   1.393       .  A
C729        H735   1.082       .  S
N730        C731   1.358       .  A
N730        H738   1.045       .  S
C731        C732   1.398       .  A
C732        H736   1.082       .  S
C739        N745   1.355       .  A
C739        C744   1.382       .  A
C739        C740   1.411       .  A
C740        C741   1.415       .  A
C740        H751   1.082       .  S
C741        C750   1.383       .  A
C741        C742   1.383       .  A
C742        N748   1.346       .  A
C742        C743   1.402       .  A
C743        C744   1.401       .  A
C743        H752   1.082       .  S
C744        C747   1.371       .  A
N745        C746   1.360       .  A
N745        H755   1.044       .  S
C746        C747   1.395       .  A
C747        H753   1.083       .  S
N748        C749   1.356       .  A
N748        H756   1.045       .  S
C749        C750   1.408       .  A
C750        H754   1.083       .  S
C757        N763   1.348       .  A
C757        C762   1.385       .  A
C757        C758   1.406       .  A
C758        C759   1.406       .  A
C758        H769   1.082       .  S
C759        C768   1.378       .  A
C759        C760   1.385       .  A
C760        N766   1.344       .  A
C760        C761   1.399       .  A
C761        C762   1.402       .  A
C761        H770   1.082       .  S
C762        C765   1.371       .  A
N763        C764   1.357       .  A
N763        H773   1.045       .  S
C764        C765   1.396       .  A
C765        H771   1.083       .  S
N766        C767   1.352       .  A
N766        H774   1.045       .  S
C767        C768   1.396       .  A
C768        H772   1.083       .  S
C775        N781   1.347       .  A
C775        C780   1.383       .  A
C775        C776   1.406       .  A
C776        C777   1.405       .  A
C776        H787   1.082       .  S
C777        C786   1.377       .  A
C777        C778   1.382       .  A
C778        N784   1.351       .  A
C778        C779   1.408       .  A
C779        C780   1.410       .  A
C779        H788   1.082       .  S
C780        C783   1.381       .  A
N781        C782   1.357       .  A
N781        H791   1.045       .  S
C782        C783   1.404       .  A
C783        H789   1.083       .  S
N784        C785   1.358       .  A
N784        H792   1.044       .  S
C785        C786   1.397       .  A
C786        H790   1.083       .  S
C793        N799   1.346       .  A
C793        C798   1.384       .  A
C793        C794   1.402       .  A
C794        C795   1.404       .  A
C794        H805   1.082       .  S
C795        C804   1.374       .  A
C795        C796   1.385       .  A
C796        N802   1.347       .  A
C796        C797   1.406       .  A
C797        C798   1.405       .  A
C797        H806   1.082       .  S
C798        C801   1.378       .  A
N799        C800   1.354       .  A
N799        H809   1.045       .  S
C800        C801   1.396       .  A
C801        H807   1.082       .  S
N802        C803   1.356       .  A
N802        H810   1.045       .  S
C803        C804   1.397       .  A
C804        H808   1.083       .  S
C811        N817   1.348       .  A
C811        C816   1.382       .  A
C811        C812   1.407       .  A
C812        C813   1.406       .  A
C812        H823   1.082       .  S
C813        C822   1.379       .  A
C813        C814   1.381       .  A
C814        N820   1.355       .  A
C814        C815   1.412       .  A
C815        C816   1.415       .  A
C815        H824   1.082       .  S
C816        C819   1.386       .  A
N817        C818   1.358       .  A
N817        H827   1.045       .  S
C818        C819   1.407       .  A
C819        H825   1.083       .  S
N820        C821   1.361       .  A
N820        H828   1.044       .  S
C821        C822   1.398       .  A
C822        H826   1.082       .  S
C829        N835   1.348       .  A
C829        C834   1.384       .  A
C829        C830   1.403       .  A
C830        C831   1.405       .  A
C830        H841   1.082       .  S
C831        C840   1.375       .  A
C831        C832   1.385       .  A
C832        N838   1.348       .  A
C832        C833   1.405       .  A
C833        C834   1.405       .  A
C833        H842   1.082       .  S
C834        C837   1.376       .  A
N835        C836   1.355       .  A
N835        H845   1.045       .  S
C836        C837   1.395       .  A
C837        H843   1.083       .  S
N838        C839   1.356       .  A
N838        H846   1.045       .  S
C839        C840   1.398       .  A
C840        H844   1.083       .  S
C847        N853   1.338       .  A
C847        C852   1.384       .  A
C847        C848   1.405       .  A
C848        C849   1.400       .  A
C848        H859   1.082       .  S
C849        C858   1.383       .  A
C849        C850   1.383       .  A
C850        N856   1.342       .  A
C850        C851   1.406       .  A
C851        C852   1.404       .  A
C851        H860   1.082       .  S
C852        C855   1.386       .  A
N853        C854   1.358       .  A
N853        H863   1.045       .  S
C854        C855   1.396       .  A
C855        H861   1.082       .  S
N856        C857   1.357       .  A
N856        H864   1.045   1_545  S
C857        C858   1.393       .  A
C858        H862   1.082       .  S
C865        N871   1.341       .  A
C865        C870   1.382       .  A
C865        C866   1.404       .  A
C866        C867   1.402       .  A
C866        H877   1.082       .  S
C867        C876   1.379       .  A
C867        C868   1.383       .  A
C868        N874   1.345       .  A
C868        C869   1.411       .  A
C869        C870   1.407       .  A
C869        H878   1.082       .  S
C870        C873   1.389       .  A
N871        C872   1.356       .  A
N871        H881   1.045       .  S
C872        C873   1.399       .  A
C873        H879   1.082       .  S
N874        C875   1.361       .  A
N874        H882   1.045       .  S
C875        C876   1.397       .  A
C876        H880   1.083       .  S
C883        N889   1.339       .  A
C883        C888   1.383       .  A
C883        C884   1.403       .  A
C884        C885   1.401       .  A
C884        H895   1.082       .  S
C885        C894   1.382       .  A
C885        C886   1.384       .  A
C886        N892   1.339       .  A
C886        C887   1.407       .  A
C887        C888   1.402       .  A
C887        H896   1.082       .  S
C888        C891   1.386       .  A
N889        C890   1.354       .  A
N889        H899   1.045       .  S
C890        C891   1.396       .  A
C891        H897   1.082       .  S
N892        C893   1.358       .  A
N892        H900   1.045       .  S
C893        C894   1.394       .  A
C894        H898   1.082       .  S
C901        N907   1.343       .  A
C901        C906   1.383       .  A
C901        C902   1.404       .  A
C902        C903   1.402       .  A
C902        H913   1.082       .  S
C903        C912   1.377       .  A
C903        C904   1.382       .  A
C904        N910   1.349       .  A
C904        C905   1.408       .  A
C905        C906   1.410       .  A
C905        H914   1.082       .  S
C906        C909   1.382       .  A
N907        C908   1.356       .  A
N907        H917   1.045       .  S
C908        C909   1.403       .  A
C909        H915   1.083       .  S
N910        C911   1.358       .  A
N910        H918   1.045       .  S
C911        C912   1.395       .  A
C912        H916   1.082       .  S
C919        N925   1.346       .  A
C919        C924   1.385       .  A
C919        C920   1.405       .  A
C920        C921   1.404       .  A
C920        H931   1.082       .  S
C921        C930   1.377       .  A
C921        C922   1.384       .  A
C922        N928   1.347       .  A
C922        C923   1.403       .  A
C923        C924   1.406       .  A
C923        H932   1.082       .  S
C924        C927   1.376       .  A
N925        C926   1.357       .  A
N925        H935   1.045       .  S
C926        C927   1.398       .  A
C927        H933   1.083       .  S
N928        C929   1.354       .  A
N928        H936   1.045       .  S
C929        C930   1.394       .  A
C930        H934   1.082       .  S
C937        N943   1.342       .  A
C937        C942   1.383       .  A
C937        C938   1.409       .  A
C938        C939   1.404       .  A
C938        H949   1.082       .  S
C939        C948   1.387       .  A
C939        C940   1.382       .  A
C940        N946   1.337       .  A
C940        C941   1.401       .  A
C941        C942   1.400       .  A
C941        H950   1.083       .  S
C942        C945   1.378       .  A
N943        C944   1.361       .  A
N943        H953   1.045       .  S
C944        C945   1.395       .  A
C945        H951   1.083       .  S
N946        C947   1.355       .  A
N946        H954   1.045       .  S
C947        C948   1.396       .  A
C948        H952   1.082       .  S
C955        N961   1.347       .  A
C955        C960   1.385       .  A
C955        C956   1.405       .  A
C956        C957   1.405       .  A
C956        H967   1.082       .  S
C957        C966   1.377       .  A
C957        C958   1.384       .  A
C958        N964   1.347       .  A
C958        C959   1.402       .  A
C959        C960   1.404       .  A
C959        H968   1.083       .  S
C960        C963   1.373       .  A
N961        C962   1.356       .  A
N961        H971   1.045       .  S
C962        C963   1.399       .  A
C963        H969   1.083       .  S
N964        C965   1.354       .  A
N964        H972   1.045       .  S
C965        C966   1.396       .  A
C966        H970   1.082       .  S
C973        N979   1.344       .  A
C973        C978   1.382       .  A
C973        C974   1.411       .  A
C974        C975   1.407       .  A
C974        H985   1.082       .  S
C975        C984   1.390       .  A
C975        C976   1.382       .  A
C976        N982   1.343       .  A
C976        C977   1.407       .  A
C977        C978   1.405       .  A
C977        H986   1.082       .  S
C978        C981   1.385       .  A
N979        C980   1.363       .  A
N979        H989   1.045       .  S
C980        C981   1.398       .  A
C981        H987   1.082       .  S
N982        C983   1.358       .  A
N982        H990   1.045       .  S
C983        C984   1.398       .  A
C984        H988   1.082       .  S
C991        N997   1.344       .  A
C991        C996   1.383       .  A
C991        C992   1.411       .  A
C992        C993   1.407       .  A
C992       H1003   1.082       .  S
C993       C1002   1.390       .  A
C993        C994   1.382       .  A
C994       N1000   1.341       .  A
C994        C995   1.406       .  A
C995        C996   1.404       .  A
C995       H1004   1.082       .  S
C996        C999   1.383       .  A
N997        C998   1.362       .  A
N997       H1007   1.045       .  S
C998        C999   1.398       .  A
C999       H1005   1.083       .  S
N1000      C1001   1.357       .  A
N1000      H1008   1.045       .  S
C1001      C1002   1.398       .  A
C1002      H1006   1.082       .  S
C1009      N1015   1.348       .  A
C1009      C1014   1.385       .  A
C1009      C1010   1.404       .  A
C1010      C1011   1.404       .  A
C1010      H1021   1.082       .  S
C1011      C1020   1.376       .  A
C1011      C1012   1.384       .  A
C1012      N1018   1.348       .  A
C1012      C1013   1.403       .  A
C1013      C1014   1.406       .  A
C1013      H1022   1.083       .  S
C1014      C1017   1.373       .  A
N1015      C1016   1.356       .  A
N1015      H1025   1.045       .  S
C1016      C1017   1.400       .  A
C1017      H1023   1.083       .  S
N1018      C1019   1.355       .  A
N1018      H1026   1.045       .  S
C1019      C1020   1.395       .  A
C1020      H1024   1.082       .  S
C1027      N1033   1.344       .  A
C1027      C1032   1.383       .  A
C1027      C1028   1.404       .  A
C1028      C1029   1.403       .  A
C1028      H1039   1.082       .  S
C1029      C1038   1.376       .  A
C1029      C1030   1.383       .  A
C1030      N1036   1.348       .  A
C1030      C1031   1.406       .  A
C1031      C1032   1.408       .  A
C1031      H1040   1.082       .  S
C1032      C1035   1.380       .  A
N1033      C1034   1.356       .  A
N1033      H1043   1.045       .  S
C1034      C1035   1.402       .  A
C1035      H1041   1.083       .  S
N1036      C1037   1.356       .  A
N1036      H1044   1.045       .  S
C1037      C1038   1.395       .  A
C1038      H1042   1.083       .  S
C1045      N1051   1.347       .  A
C1045      C1050   1.384       .  A
C1045      C1046   1.401       .  A
C1046      C1047   1.404       .  A
C1046      H1057   1.082       .  S
C1047      C1056   1.372       .  A
C1047      C1048   1.386       .  A
C1048      N1054   1.345       .  A
C1048      C1049   1.402       .  A
C1049      C1050   1.402       .  A
C1049      H1058   1.083       .  S
C1050      C1053   1.373       .  A
N1051      C1052   1.354       .  A
N1051      H1061   1.045       .  S
C1052      C1053   1.393       .  A
C1053      H1059   1.082       .  S
N1054      C1055   1.355       .  A
N1054      H1062   1.045       .  S
C1055      C1056   1.395       .  A
C1056      H1060   1.083       .  S
C1063      N1069   1.346       .  A
C1063      C1068   1.382       .  A
C1063      C1064   1.407       .  A
C1064      C1065   1.406       .  A
C1064      H1075   1.082       .  S
C1065      C1074   1.380       .  A
C1065      C1066   1.383       .  A
C1066      N1072   1.347       .  A
C1066      C1067   1.405       .  A
C1067      C1068   1.406       .  A
C1067      H1076   1.082       .  S
C1068      C1071   1.379       .  A
N1069      C1070   1.359       .  A
N1069      H1079   1.045       .  S
C1070      C1071   1.401       .  A
C1071      H1077   1.083       .  S
N1072      C1073   1.355       .  A
N1072      H1080   1.045       .  S
C1073      C1074   1.397       .  A
C1074      H1078   1.082       .  S
C1081      N1087   1.348       .  A
C1081      C1086   1.384       .  A
C1081      C1082   1.403       .  A
C1082      C1083   1.406       .  A
C1082      H1093   1.083       .  S
C1083      C1092   1.374       .  A
C1083      C1084   1.385       .  A
C1084      N1090   1.348       .  A
C1084      C1085   1.404       .  A
C1085      C1086   1.404       .  A
C1085      H1094   1.082       .  S
C1086      C1089   1.376       .  A
N1087      C1088   1.355       .  A
N1087      H1097   1.045       .  S
C1088      C1089   1.395       .  A
C1089      H1095   1.082       .  S
N1090      C1091   1.356       .  A
N1090      H1098   1.045       .  S
C1091      C1092   1.400       .  A
C1092      H1096   1.083       .  S
C1099      N1105   1.343       .  A
C1099      C1104   1.382       .  A
C1099      C1100   1.407       .  A
C1100      C1101   1.406       .  A
C1100      H1111   1.082       .  S
C1101      C1110   1.385       .  A
C1101      C1102   1.383       .  A
C1102      N1108   1.343       .  A
C1102      C1103   1.410       .  A
C1103      C1104   1.405       .  A
C1103      H1112   1.082       .  S
C1104      C1107   1.388       .  A
N1105      C1106   1.358       .  A
N1105      H1115   1.045       .  S
C1106      C1107   1.396       .  A
C1107      H1113   1.082       .  S
N1108      C1109   1.362       .  A
N1108      H1116   1.045       .  S
C1109      C1110   1.399       .  A
C1110      H1114   1.082       .  S
C1117      N1123   1.346       .  A
C1117      C1122   1.384       .  A
C1117      C1118   1.401       .  A
C1118      C1119   1.404       .  A
C1118      H1129   1.083       .  S
C1119      C1128   1.371       .  A
C1119      C1120   1.386       .  A
C1120      N1126   1.346       .  A
C1120      C1121   1.403       .  A
C1121      C1122   1.402       .  A
C1121      H1130   1.082       .  S
C1122      C1125   1.373       .  A
N1123      C1124   1.354       .  A
N1123      H1133   1.045       .  S
C1124      C1125   1.394       .  A
C1125      H1131   1.083       .  S
N1126      C1127   1.355       .  A
N1126      H1134   1.045       .  S
C1127      C1128   1.398       .  A
C1128      H1132   1.083       .  S
C1135      N1141   1.341       .  A
C1135      C1140   1.384       .  A
C1135      C1136   1.406       .  A
C1136      C1137   1.402       .  A
C1136      H1147   1.082       .  S
C1137      C1146   1.384       .  A
C1137      C1138   1.383       .  A
C1138      N1144   1.343       .  A
C1138      C1139   1.407       .  A
C1139      C1140   1.406       .  A
C1139      H1148   1.082       .  S
C1140      C1143   1.386       .  A
N1141      C1142   1.359       .  A
N1141      H1151   1.045       .  S
C1142      C1143   1.397       .  A
C1143      H1149   1.082       .  S
N1144      C1145   1.357       .  A
N1144      H1152   1.045       .  S
C1145      C1146   1.394       .  A
C1146      H1150   1.082       .  S
C1153      N1159   1.340       .  A
C1153      C1158   1.384       .  A
C1153      C1154   1.406       .  A
C1154      C1155   1.402       .  A
C1154      H1165   1.082       .  S
C1155      C1164   1.383       .  A
C1155      C1156   1.383       .  A
C1156      N1162   1.339       .  A
C1156      C1157   1.402       .  A
C1157      C1158   1.401       .  A
C1157      H1166   1.082       .  S
C1158      C1161   1.379       .  A
N1159      C1160   1.359       .  A
N1159      H1169   1.045       .  S
C1160      C1161   1.395       .  A
C1161      H1167   1.083       .  S
N1162      C1163   1.355       .  A
N1162      H1170   1.045       .  S
C1163      C1164   1.394       .  A
C1164      H1168   1.082       .  S
C1171      N1177   1.339       .  A
C1171      C1176   1.382       .  A
C1171      C1172   1.403       .  A
C1172      C1173   1.401       .  A
C1172      H1183   1.082       .  S
C1173      C1182   1.379       .  A
C1173      C1174   1.383       .  A
C1174      N1180   1.344       .  A
C1174      C1175   1.409       .  A
C1175      C1176   1.406       .  A
C1175      H1184   1.082       .  S
C1176      C1179   1.387       .  A
N1177      C1178   1.356       .  A
N1177      H1187   1.045       .  S
C1178      C1179   1.397       .  A
C1179      H1185   1.082       .  S
N1180      C1181   1.361       .  A
N1180      H1188   1.045       .  S
C1181      C1182   1.396       .  A
C1182      H1186   1.083       .  S
C1189      N1195   1.345       .  A
C1189      C1194   1.383       .  A
C1189      C1190   1.408       .  A
C1190      C1191   1.407       .  A
C1190      H1201   1.082       .  S
C1191      C1200   1.387       .  A
C1191      C1192   1.384       .  A
C1192      N1198   1.342       .  A
C1192      C1193   1.406       .  A
C1193      C1194   1.402       .  A
C1193      H1202   1.082       .  S
C1194      C1197   1.384       .  A
N1195      C1196   1.358       .  A
N1195      H1205   1.045       .  S
C1196      C1197   1.393       .  A
C1197      H1203   1.082       .  S
N1198      C1199   1.357       .  A
N1198      H1206   1.045       .  S
C1199      C1200   1.399       .  A
C1200      H1204   1.082       .  S
C1207      N1213   1.347       .  A
C1207      C1212   1.385       .  A
C1207      C1208   1.405       .  A
C1208      C1209   1.404       .  A
C1208      H1219   1.082       .  S
C1209      C1218   1.376       .  A
C1209      C1210   1.384       .  A
C1210      N1216   1.348       .  A
C1210      C1211   1.403       .  A
C1211      C1212   1.406       .  A
C1211      H1220   1.082       .  S
C1212      C1215   1.376       .  A
N1213      C1214   1.356       .  A
N1213      H1223   1.045       .  S
C1214      C1215   1.399       .  A
C1215      H1221   1.083       .  S
N1216      C1217   1.355       .  A
N1216      H1224   1.044       .  S
C1217      C1218   1.396       .  A
C1218      H1222   1.083       .  S
C1225      N1231   1.355       .  A
C1225      C1230   1.382       .  A
C1225      C1226   1.411       .  A
C1226      C1227   1.414       .  A
C1226      H1237   1.082       .  S
C1227      C1236   1.383       .  A
C1227      C1228   1.383       .  A
C1228      N1234   1.347       .  A
C1228      C1229   1.403       .  A
C1229      C1230   1.403       .  A
C1229      H1238   1.082       .  S
C1230      C1233   1.373       .  A
N1231      C1232   1.360       .  A
N1231      H1241   1.044       .  S
C1232      C1233   1.397       .  A
C1233      H1239   1.083       .  S
N1234      C1235   1.357       .  A
N1234      H1242   1.045       .  S
C1235      C1236   1.408       .  A
C1236      H1240   1.083       .  S
C1243      N1249   1.342       .  A
C1243      C1248   1.383       .  A
C1243      C1244   1.407       .  A
C1244      C1245   1.405       .  A
C1244      H1255   1.082       .  S
C1245      C1254   1.387       .  A
C1245      C1246   1.383       .  A
C1246      N1252   1.340       .  A
C1246      C1247   1.407       .  A
C1247      C1248   1.402       .  A
C1247      H1256   1.083       .  S
C1248      C1251   1.386       .  A
N1249      C1250   1.357       .  A
N1249      H1259   1.045       .  S
C1250      C1251   1.395       .  A
C1251      H1257   1.082       .  S
N1252      C1253   1.360       .  A
N1252      H1260   1.045       .  S
C1253      C1254   1.397       .  A
C1254      H1258   1.082       .  S
C1261      N1267   1.349       .  A
C1261      C1266   1.382       .  A
C1261      C1262   1.407       .  A
C1262      C1263   1.409       .  A
C1262      H1273   1.082       .  S
C1263      C1272   1.381       .  A
C1263      C1264   1.383       .  A
C1264      N1270   1.344       .  A
C1264      C1265   1.404       .  A
C1265      C1266   1.402       .  A
C1265      H1274   1.082       .  S
C1266      C1269   1.375       .  A
N1267      C1268   1.358       .  A
N1267      H1277   1.045       .  S
C1268      C1269   1.394       .  A
C1269      H1275   1.083       .  S
N1270      C1271   1.357       .  A
N1270      H1278   1.045       .  S
C1271      C1272   1.403       .  A
C1272      H1276   1.083       .  S
C1279      N1285   1.346       .  A
C1279      C1284   1.382       .  A
C1279      C1280   1.413       .  A
C1280      C1281   1.410       .  A
C1280      H1291   1.082       .  S
C1281      C1290   1.393       .  A
C1281      C1282   1.382       .  A
C1282      N1288   1.341       .  A
C1282      C1283   1.405       .  A
C1283      C1284   1.403       .  A
C1283      H1292   1.082       .  S
C1284      C1287   1.382       .  A
N1285      C1286   1.363       .  A
N1285      H1295   1.045       .  S
C1286      C1287   1.397       .  A
C1287      H1293   1.083       .  S
N1288      C1289   1.357       .  A
N1288      H1296   1.045       .  S
C1289      C1290   1.401       .  A
C1290      H1294   1.082       .  S
C1297      N1303   1.347       .  A
C1297      C1302   1.384       .  A
C1297      C1298   1.405       .  A
C1298      C1299   1.405       .  A
C1298      H1309   1.082       .  S
C1299      C1308   1.377       .  A
C1299      C1300   1.384       .  A
C1300      N1306   1.346       .  A
C1300      C1301   1.402       .  A
C1301      C1302   1.405       .  A
C1301      H1310   1.082       .  S
C1302      C1305   1.374       .  A
N1303      C1304   1.356       .  A
N1303      H1313   1.045       .  S
C1304      C1305   1.399       .  A
C1305      H1311   1.083       .  S
N1306      C1307   1.354       .  A
N1306      H1314   1.045       .  S
C1307      C1308   1.395       .  A
C1308      H1312   1.083       .  S
C1315      N1321   1.339       .  A
C1315      C1320   1.381       .  A
C1315      C1316   1.404       .  A
C1316      C1317   1.401       .  A
C1316      H1327   1.082       .  S
C1317      C1326   1.382       .  A
C1317      C1318   1.382       .  A
C1318      N1324   1.345       .  A
C1318      C1319   1.415       .  A
C1319      C1320   1.410       .  A
C1319      H1328   1.082       .  S
C1320      C1323   1.396       .  A
N1321      C1322   1.357       .  A
N1321      H1331   1.045       .  S
C1322      C1323   1.402       .  A
C1323      H1329   1.082       .  S
N1324      C1325   1.364       .  A
N1324      H1332   1.045       .  S
C1325      C1326   1.395       .  A
C1326      H1330   1.083       .  S
C1333      N1339   1.349       .  A
C1333      C1338   1.383       .  A
C1333      C1334   1.406       .  A
C1334      C1335   1.409       .  A
C1334      H1345   1.082       .  S
C1335      C1344   1.379       .  A
C1335      C1336   1.384       .  A
C1336      N1342   1.349       .  A
C1336      C1337   1.407       .  A
C1337      C1338   1.406       .  A
C1337      H1346   1.082       .  S
C1338      C1341   1.379       .  A
N1339      C1340   1.356       .  A
N1339      H1349   1.045       .  S
C1340      C1341   1.396       .  A
C1341      H1347   1.082       .  S
N1342      C1343   1.357       .  A
N1342      H1350   1.045       .  S
C1343      C1344   1.402       .  A
C1344      H1348   1.083       .  S
C1351      N1357   1.340       .  A
C1351      C1356   1.382       .  A
C1351      C1352   1.404       .  A
C1352      C1353   1.402       .  A
C1352      H1363   1.082       .  S
C1353      C1362   1.382       .  A
C1353      C1354   1.382       .  A
C1354      N1360   1.344       .  A
C1354      C1355   1.412       .  A
C1355      C1356   1.407       .  A
C1355      H1364   1.082       .  S
C1356      C1359   1.390       .  A
N1357      C1358   1.356       .  A
N1357      H1367   1.045       .  S
C1358      C1359   1.399       .  A
C1359      H1365   1.082       .  S
N1360      C1361   1.362       .  A
N1360      H1368   1.045       .  S
C1361      C1362   1.396       .  A
C1362      H1366   1.083       .  S
C1369      N1375   1.348       .  A
C1369      C1374   1.384       .  A
C1369      C1370   1.407       .  A
C1370      C1371   1.407       .  A
C1370      H1381   1.082       .  S
C1371      C1380   1.380       .  A
C1371      C1372   1.384       .  A
C1372      N1378   1.349       .  A
C1372      C1373   1.404       .  A
C1373      C1374   1.406       .  A
C1373      H1382   1.082       .  S
C1374      C1377   1.377       .  A
N1375      C1376   1.357       .  A
N1375      H1385   1.045       .  S
C1376      C1377   1.399       .  A
C1377      H1383   1.083       .  S
N1378      C1379   1.355       .  A
N1378      H1386   1.044       .  S
C1379      C1380   1.397       .  A
C1380      H1384   1.082       .  S
C1387      N1393   1.341       .  A
C1387      C1392   1.381       .  A
C1387      C1388   1.406       .  A
C1388      C1389   1.404       .  A
C1388      H1399   1.082       .  S
C1389      C1398   1.382       .  A
C1389      C1390   1.382       .  A
C1390      N1396   1.345       .  A
C1390      C1391   1.412       .  A
C1391      C1392   1.408       .  A
C1391      H1400   1.082       .  S
C1392      C1395   1.392       .  A
N1393      C1394   1.358       .  A
N1393      H1403   1.045       .  S
C1394      C1395   1.399       .  A
C1395      H1401   1.082       .  S
N1396      C1397   1.363       .  A
N1396      H1404   1.045       .  S
C1397      C1398   1.398       .  A
C1398      H1402   1.083       .  S
C1405      N1411   1.340       .  A
C1405      C1410   1.383       .  A
C1405      C1406   1.405       .  A
C1406      C1407   1.403       .  A
C1406      H1417   1.083       .  S
C1407      C1416   1.383       .  A
C1407      C1408   1.384       .  A
C1408      N1414   1.340       .  A
C1408      C1409   1.407       .  A
C1409      C1410   1.402       .  A
C1409      H1418   1.082       .  S
C1410      C1413   1.386       .  A
N1411      C1412   1.357       .  A
N1411      H1421   1.045       .  S
C1412      C1413   1.395       .  A
C1413      H1419   1.082       .  S
N1414      C1415   1.358       .  A
N1414      H1422   1.045       .  S
C1415      C1416   1.396       .  A
C1416      H1420   1.083       .  S
C1423      N1429   1.338       .  A
C1423      C1428   1.384       .  A
C1423      C1424   1.404       .  A
C1424      C1425   1.399       .  A
C1424      H1435   1.082       .  S
C1425      C1434   1.382       .  A
C1425      C1426   1.383       .  A
C1426      N1432   1.342       .  A
C1426      C1427   1.407       .  A
C1427      C1428   1.405       .  A
C1427      H1436   1.082       .  S
C1428      C1431   1.385       .  A
N1429      C1430   1.357       .  A
N1429      H1439   1.045       .  S
C1430      C1431   1.397       .  A
C1431      H1437   1.082       .  S
N1432      C1433   1.357       .  A
N1432      H1440   1.045       .  S
C1433      C1434   1.392       .  A
C1434      H1438   1.082       .  S
C1441      N1447   1.354       .  A
C1441      C1446   1.382       .  A
C1441      C1442   1.410       .  A
C1442      C1443   1.413       .  A
C1442      H1453   1.082       .  S
C1443      C1452   1.383       .  A
C1443      C1444   1.383       .  A
C1444      N1450   1.347       .  A
C1444      C1445   1.405       .  A
C1445      C1446   1.404       .  A
C1445      H1454   1.082       .  S
C1446      C1449   1.376       .  A
N1447      C1448   1.360       .  A
N1447      H1457   1.044       .  S
C1448      C1449   1.396       .  A
C1449      H1455   1.083       .  S
N1450      C1451   1.357       .  A
N1450      H1458   1.045       .  S
C1451      C1452   1.405       .  A
C1452      H1456   1.083       .  S
