geometry optimzed in LAMMPS
_audit_creation_date              2020-12-01 
_audit_creation_method            'lammps2cif' 
_symmetry_space_group_name_H-M    'P1' 
_symmetry_Int_Tables_number       1 
_symmetry_cell_setting            triclinic 
loop_ 
_symmetry_equiv_pos_as_xyz 
  x,y,z 
_cell_length_a                    37.38754061 
_cell_length_b                    37.35757642273706 
_cell_length_c                    56.52337100703659 
_cell_angle_alpha                 89.96737252335845 
_cell_angle_beta                  89.81506903566327 
_cell_angle_gamma                 90.02714545347656 
loop_ 
_atom_site_label 
_atom_site_type_symbol 
_atom_site_fract_x 
_atom_site_fract_y 
_atom_site_fract_z 
_atom_site_charge 
O1          O  0.39910148  0.20244716  0.13739916    -0.71300
O2          O  0.43189852  0.10737981  0.12440764    -0.71500
O3          O  0.40510834  0.16170251  0.09865142    -0.71300
O4          O  0.42700919  0.14802673  0.16331267    -0.71400
O5          O  0.37284432  0.12956386  0.17013718    -0.71300
O6          O  0.35194545  0.13957755  0.10388498    -0.71300
O7          O  0.37838326  0.08735006  0.13159480    -0.71300
O8          O  0.34547195  0.18138382  0.14275909    -0.71500
V9          V  0.41471564  0.15452508  0.13108119     1.35200
V10         V  0.36317970  0.13487657  0.13696362     1.35200
C11         C  0.36638790  0.20784657  0.14210732     0.78000
C12         C  0.41049433  0.08118211  0.12607837     0.78000
C13         C  0.37534147  0.15266447  0.09004226     0.77900
C14         C  0.40391232  0.13665670  0.17781331     0.77900
O15         O  0.49573047  0.71853673  0.13868953    -0.71300
O16         O  0.45977587  0.81272753  0.12581446    -0.71500
O17         O  0.48920978  0.75979505  0.09999794    -0.71300
O18         O  0.46492638  0.77147768  0.16443280    -0.71400
O19         O  0.51751283  0.79357091  0.17167425    -0.71300
O20         O  0.54194970  0.78240182  0.10587313    -0.71300
O21         O  0.51276763  0.83439844  0.13236162    -0.71300
O22         O  0.54790379  0.74188632  0.14557699    -0.71500
V23         V  0.47847095  0.76603111  0.13235190     1.35200
V24         V  0.52904088  0.78757001  0.13873927     1.35200
C25         C  0.52818847  0.71453340  0.14457929     0.78000
C26         C  0.48050697  0.83954814  0.12697124     0.78000
C27         C  0.51908969  0.76938805  0.09171308     0.77900
C28         C  0.48668003  0.78457572  0.17907087     0.77900
O29         O  0.39696698  0.19991848  0.87561003    -0.71300
O30         O  0.43183528  0.10552459  0.88893271    -0.71500
O31         O  0.42659966  0.14609948  0.85007714    -0.71300
O32         O  0.40372365  0.15927053  0.91465419    -0.71400
O33         O  0.35063791  0.13717781  0.90927838    -0.71300
O34         O  0.37346691  0.12497866  0.84330667    -0.71300
O35         O  0.37842985  0.08460328  0.88276477    -0.71300
O36         O  0.34428807  0.17723728  0.86941800    -0.71500
V37         V  0.41371169  0.15234966  0.88220794     1.35200
V38         V  0.36271172  0.13147912  0.87633068     1.35200
C39         C  0.36444954  0.20425994  0.86996310     0.78000
C40         C  0.41067754  0.07903956  0.88796693     0.78000
C41         C  0.40437145  0.13323861  0.83566380     0.77900
C42         C  0.37391599  0.15004194  0.92321131     0.77900
O43         O  0.49812246  0.71746072  0.87836033    -0.71300
O44         O  0.46400578  0.81276182  0.88952333    -0.71500
O45         O  0.46859134  0.76980410  0.85170892    -0.71300
O46         O  0.49205223  0.76046963  0.91632161    -0.71400
O47         O  0.54449477  0.78372137  0.91016388    -0.71300
O48         O  0.52226243  0.78851020  0.84362447    -0.71300
O49         O  0.51697164  0.83305981  0.88096946    -0.71300
O50         O  0.55128073  0.73930678  0.87236677    -0.71500
V51         V  0.48176228  0.76546259  0.88384573     1.35200
V52         V  0.53278038  0.78566696  0.87694310     1.35200
C53         C  0.53080506  0.71254451  0.87327139     0.78000
C54         C  0.48504068  0.83909644  0.88686981     0.78000
C55         C  0.49098928  0.78062537  0.83658122     0.77900
C56         C  0.52143506  0.77129414  0.92455241     0.77900
O57         O  0.40188280  0.71807577  0.63599685    -0.71300
O58         O  0.43584145  0.81365076  0.62370664    -0.71500
O59         O  0.43355965  0.77054540  0.66169025    -0.71300
O60         O  0.40585256  0.76071980  0.59785910    -0.71400
O61         O  0.35333990  0.78269641  0.60560725    -0.71300
O62         O  0.38102802  0.79111826  0.67093596    -0.71300
O63         O  0.38297450  0.83382401  0.63251807    -0.71300
O64         O  0.34977652  0.74048904  0.64444780    -0.71500
V65         V  0.41827126  0.76615087  0.62996252     1.35200
V66         V  0.36780652  0.78657587  0.63819162     1.35200
C67         C  0.36966492  0.71344876  0.64249971     0.78000
C68         C  0.41472419  0.84000193  0.62626530     0.78000
C69         C  0.41244852  0.78244916  0.67723952     0.77900
C70         C  0.37533253  0.76995331  0.59066726     0.77900
O71         O  0.49464186  0.20483480  0.63436020    -0.71300
O72         O  0.46153024  0.10834326  0.62577269    -0.71500
O73         O  0.46562798  0.15343881  0.66257961    -0.71300
O74         O  0.48884864  0.15979511  0.59779658    -0.71400
O75         O  0.54335639  0.14258020  0.60449399    -0.71300
O76         O  0.51783672  0.13075624  0.67013440    -0.71300
O77         O  0.51590917  0.08953945  0.63100603    -0.71300
O78         O  0.54675751  0.18371762  0.64394142    -0.71500
V79         V  0.47870590  0.15625707  0.63029367     1.35200
V80         V  0.52998264  0.13709062  0.63728084     1.35200
C81         C  0.52663167  0.21037157  0.64084728     0.78000
C82         C  0.48362826  0.08260172  0.62659207     0.78000
C83         C  0.48699103  0.14006894  0.67735413     0.77900
C84         C  0.51966271  0.15284522  0.58995005     0.77900
O85         O  0.39727460  0.72166527  0.38038832    -0.71300
O86         O  0.43041113  0.81761500  0.39108732    -0.71500
O87         O  0.40126590  0.76531808  0.41781668    -0.71300
O88         O  0.42785032  0.77355515  0.35348631    -0.71400
O89         O  0.37525891  0.79447891  0.34491672    -0.71300
O90         O  0.34800977  0.78545248  0.41025823    -0.71300
O91         O  0.37696781  0.83716131  0.38341246    -0.71300
O92         O  0.34510683  0.74337905  0.37147525    -0.71500
V93         V  0.41320096  0.76995768  0.38553403     1.35200
V94         V  0.36238855  0.78971157  0.37767337     1.35200
C95         C  0.36524019  0.71660654  0.37387599     0.78000
C96         C  0.40880550  0.84364538  0.38921942     0.78000
C97         C  0.37044017  0.77353659  0.42509986     0.77900
C98         C  0.40638356  0.78538342  0.33818997     0.77900
O99         O  0.49152240  0.20649488  0.37863174    -0.71300
O100        O  0.45712531  0.11142928  0.39060626    -0.71500
O101        O  0.48749034  0.16349679  0.41649356    -0.71300
O102        O  0.45997069  0.15453764  0.35244580    -0.71400
O103        O  0.51229222  0.13297438  0.34365668    -0.71300
O104        O  0.54021746  0.14206913  0.40871333    -0.71300
O105        O  0.51006022  0.09083054  0.38238154    -0.71300
O106        O  0.54347261  0.18409360  0.36970223    -0.71500
V107        V  0.47503990  0.15859693  0.38436103     1.35200
V108        V  0.52548019  0.13796059  0.37624788     1.35200
C109        C  0.52364790  0.21114282  0.37207848     0.78000
C110        C  0.47825357  0.08503118  0.38875074     0.78000
C111        C  0.51801219  0.15419727  0.42369908     0.77900
C112        C  0.48117577  0.14212381  0.33709283     0.77900
O113        O  0.19126684  0.41506850  0.13650298    -0.71300
O114        O  0.09692948  0.45161587  0.12506401    -0.71500
O115        O  0.13936489  0.44681494  0.16307690    -0.71300
O116        O  0.14901057  0.42134202  0.09849702    -0.71400
O117        O  0.12613782  0.36890605  0.10540747    -0.71300
O118        O  0.11727289  0.39441549  0.17113697    -0.71300
O119        O  0.07533200  0.39878041  0.13252281    -0.71300
O120        O  0.16783531  0.36313009  0.14432224    -0.71500
V121        V  0.14374535  0.43268418  0.13094325     1.35200
V122        V  0.12214236  0.38232377  0.13820589     1.35200
C123        C  0.19525883  0.38256178  0.14241771     0.78000
C124        C  0.07011278  0.43095719  0.12686858     0.78000
C125        C  0.12633660  0.42543596  0.17810536     0.77900
C126        C  0.13924171  0.39120249  0.09079034     0.77900
O127        O  0.70601728  0.50914190  0.13804363    -0.71300
O128        O  0.80119242  0.47516995  0.12534222    -0.71500
O129        O  0.75968703  0.47985339  0.16398933    -0.71300
O130        O  0.74770460  0.50295743  0.09944064    -0.71400
O131        O  0.76969780  0.55605244  0.10527578    -0.71300
O132        O  0.77985700  0.53331918  0.17109843    -0.71300
O133        O  0.82139031  0.52866743  0.13229336    -0.71300
O134        O  0.72804811  0.56206930  0.14447512    -0.71500
V135        V  0.75397222  0.49281660  0.13185353     1.35200
V136        V  0.77422455  0.54400451  0.13814670     1.35200
C137        C  0.70118098  0.54173837  0.14350821     0.78000
C138        C  0.82745140  0.49659643  0.12674781     0.78000
C139        C  0.77208637  0.50223071  0.17852516     0.77900
C140        C  0.75735955  0.53279292  0.09115094     0.77900
O141        O  0.19260824  0.41380848  0.87611269    -0.71300
O142        O  0.09933726  0.44947103  0.89198807    -0.71500
O143        O  0.15414480  0.41990816  0.91612575    -0.71300
O144        O  0.13782774  0.44445989  0.85184771    -0.71400
O145        O  0.11659947  0.39133238  0.84505982    -0.71300
O146        O  0.13044334  0.36751452  0.91054243    -0.71300
O147        O  0.07751004  0.39656123  0.88523904    -0.71300
O148        O  0.16923090  0.36131006  0.87018455    -0.71500
V149        V  0.14559157  0.43090400  0.88387131     1.35200
V150        V  0.12392354  0.38022851  0.87788433     1.35200
C151        C  0.19646632  0.38118055  0.87048273     0.78000
C152        C  0.07256284  0.42865823  0.89127928     0.78000
C153        C  0.14465611  0.38998170  0.92446860     0.77900
C154        C  0.12459223  0.42228236  0.83744139     0.77900
O155        O  0.71138089  0.51098519  0.87855101    -0.71300
O156        O  0.80706451  0.47952248  0.89083515    -0.71500
O157        O  0.75329184  0.50674261  0.91675597    -0.71300
O158        O  0.76520837  0.48229200  0.85252634    -0.69800
O159        O  0.78374194  0.53612510  0.84456253    -0.71300
O160        O  0.77442483  0.56007247  0.91035300    -0.71300
O161        O  0.82634716  0.53312574  0.88298225    -0.71300
O162        O  0.73198184  0.56438788  0.87156398    -0.71500
V163        V  0.75958403  0.49595414  0.88449698     1.35200
V164        V  0.77868035  0.54742478  0.87749710     1.35200
C165        C  0.70568605  0.54334922  0.87296721     0.78000
C166        C  0.83291946  0.50133629  0.88903674     0.78000
C167        C  0.76236236  0.53688326  0.92472299     0.77900
C168        C  0.77644365  0.50470261  0.83757302     0.77900
O169        O  0.70220687  0.41841381  0.63578295    -0.71300
O170        O  0.79778684  0.45392693  0.62669637    -0.71500
O171        O  0.74718362  0.42432033  0.59889033    -0.71300
O172        O  0.75257839  0.44925861  0.66351395    -0.71400
O173        O  0.77596032  0.39753266  0.67175777    -0.71300
O174        O  0.76664154  0.37075169  0.60640551    -0.71300
O175        O  0.81801478  0.40029749  0.63309710    -0.71300
O176        O  0.72461221  0.36684002  0.64552534    -0.71500
V177        V  0.75032309  0.43546323  0.63136864     1.35200
V178        V  0.77082216  0.38485101  0.63903762     1.35200
C179        C  0.69749076  0.38637988  0.64257846     0.78000
C180        C  0.82413228  0.43265511  0.62823699     0.78000
C181        C  0.75558787  0.39358874  0.59149626     0.77900
C182        C  0.76588738  0.42827245  0.67859551     0.77900
O183        O  0.18815580  0.51202415  0.63652071    -0.71300
O184        O  0.09217726  0.48046769  0.62403545    -0.71500
O185        O  0.14561620  0.51009329  0.59842876    -0.71300
O186        O  0.13523816  0.48058285  0.66211247    -0.71400
O187        O  0.11469159  0.53287988  0.67188490    -0.71300
O188        O  0.12518774  0.56298907  0.60682328    -0.71300
O189        O  0.07300138  0.53362758  0.63306790    -0.71300
O190        O  0.16690299  0.56413892  0.64619197    -0.71500
V191        V  0.13990021  0.49682369  0.63047117     1.35200
V192        V  0.12044139  0.54742198  0.63931802     1.35200
C193        C  0.19351379  0.54383288  0.64354319     0.78000
C194        C  0.06628851  0.50215867  0.62650244     0.78000
C195        C  0.13698702  0.54097961  0.59151209     0.77900
C196        C  0.12306432  0.50115798  0.67789393     0.77900
O197        O  0.69915007  0.41776107  0.38021521    -0.71300
O198        O  0.79373814  0.45475438  0.39061345    -0.71500
O199        O  0.75002996  0.44993784  0.35326574    -0.71300
O200        O  0.74270002  0.42394796  0.41765405    -0.71400
O201        O  0.76454755  0.37121465  0.41042633    -0.71300
O202        O  0.77324415  0.39812354  0.34497808    -0.71300
O203        O  0.81517323  0.40183052  0.38335066    -0.71300
O204        O  0.72283305  0.36632207  0.37145904    -0.71500
V205        V  0.74679232  0.43557226  0.38531989     1.35200
V206        V  0.76843360  0.38537393  0.37772399     1.35200
C207        C  0.69532469  0.38551773  0.37365907     0.78000
C208        C  0.82053563  0.43413381  0.38857264     0.78000
C209        C  0.76345836  0.42897615  0.33818097     0.77900
C210        C  0.75216671  0.39361565  0.42520056     0.77900
O211        O  0.18491733  0.51431720  0.37872056    -0.71300
O212        O  0.08933188  0.48082192  0.38920165    -0.71500
O213        O  0.13263035  0.48569248  0.35154257    -0.71300
O214        O  0.14192854  0.50824854  0.41650839    -0.71400
O215        O  0.12116039  0.56171717  0.41038457    -0.71300
O216        O  0.11225146  0.53893660  0.34412675    -0.71300
O217        O  0.06956226  0.53457812  0.38258518    -0.71300
O218        O  0.16362445  0.56733229  0.37152166    -0.71500
V219        V  0.13679854  0.49833563  0.38386148     1.35200
V220        V  0.11709816  0.54964429  0.37731209     1.35200
C221        C  0.19022078  0.54677136  0.37321239     0.78000
C222        C  0.06320449  0.50228399  0.38745563     0.78000
C223        C  0.12066104  0.50793373  0.33674301     0.77900
C224        C  0.13326811  0.53846725  0.42468822     0.77900
C225        C  0.96842100  0.49388813  0.39281956     0.20800
C226        C  0.93283477  0.50598617  0.39375671    -0.39000
C227        C  0.90650415  0.47920951  0.39348692     0.19800
C228        C  0.91522902  0.44325923  0.39221837     0.22500
C229        C  0.95074368  0.43118192  0.39130780    -0.39500
C230        C  0.97701791  0.45789101  0.39176320     0.21300
N231        N  0.99816082  0.51396137  0.39198806    -0.32800
C232        C  0.02589596  0.49065534  0.39049739    -0.10400
C233        C  0.01381501  0.45535066  0.39039800    -0.29200
N234        N  0.88561857  0.42317663  0.39107457    -0.45800
C235        C  0.85766947  0.44627446  0.39159424    -0.05100
C236        C  0.86954929  0.48161194  0.39323497    -0.22400
H237        H  0.92616862  0.53416594  0.39427416     0.19400
H238        H  0.95738571  0.40305444  0.38997842     0.18200
H239        H  0.02966519  0.43124410  0.38871499     0.14500
H240        H  0.85348572  0.50570399  0.39330416     0.14300
H241        H  0.99948525  0.54189968  0.39197933     0.32500
H242        H  0.88452827  0.39534140  0.38940520     0.35200
C243        C  0.15534205  0.53967876  0.52937151     0.20800
C244        C  0.16946681  0.52446026  0.50867896    -0.39000
C245        C  0.15505026  0.53681902  0.48733541     0.19800
C246        C  0.12854920  0.56260146  0.48644299     0.22500
C247        C  0.11419636  0.57782704  0.50732761    -0.39500
C248        C  0.12873287  0.56538810  0.52889585     0.21300
N249        N  0.16274487  0.52999916  0.55169091    -0.32800
C250        C  0.14082312  0.54933714  0.56593543    -0.10400
C251        C  0.11931615  0.57216013  0.55235136    -0.29200
N252        N  0.11817499  0.56810428  0.46379943    -0.45800
C253        C  0.13799978  0.54525167  0.45037663    -0.05100
C254        C  0.16127775  0.52549421  0.46452979    -0.22400
H255        H  0.18948068  0.50354532  0.50920184     0.19400
H256        H  0.09262803  0.59711645  0.50685020     0.18200
H257        H  0.09794180  0.58926043  0.55861147     0.14500
H258        H  0.17946267  0.50458383  0.45892866     0.14300
H259        H  0.18051069  0.50991982  0.55689591     0.32500
H260        H  0.09776958  0.58500311  0.45798151     0.35200
C261        C  0.73680017  0.39610941  0.52972638     0.20800
C262        C  0.72320786  0.41203048  0.50930794    -0.39000
C263        C  0.73421083  0.39694556  0.48793463     0.19800
C264        C  0.75721981  0.36802682  0.48660314     0.22500
C265        C  0.77084069  0.35171103  0.50732647    -0.39500
C266        C  0.75960434  0.36694857  0.52905691     0.21300
N267        N  0.73202406  0.40770169  0.55189556    -0.32800
C268        C  0.75170239  0.38606746  0.56594822    -0.10400
C269        C  0.76919726  0.35987128  0.55240833    -0.29200
N270        N  0.76566833  0.36112985  0.46371361    -0.45800
C271        C  0.74796488  0.38626195  0.45079196    -0.05100
C272        C  0.72796700  0.40859700  0.46539456    -0.22400
H273        H  0.70622676  0.43547586  0.51000104     0.19400
H274        H  0.78961501  0.32969935  0.50658876     0.18200
H275        H  0.78779342  0.33978897  0.55860758     0.14500
H276        H  0.71241339  0.43175368  0.46024910     0.14300
H277        H  0.71704695  0.42997208  0.55709615     0.32500
H278        H  0.78371936  0.34201067  0.45743415     0.35200
C279        C  0.90899979  0.47670080  0.62292413     0.20800
C280        C  0.93358216  0.50512106  0.62338024    -0.39000
C281        C  0.96984037  0.49538669  0.62192689     0.19800
C282        C  0.98089788  0.46010966  0.62013680     0.22500
C283        C  0.95635067  0.43173560  0.61983945    -0.39500
C284        C  0.92015298  0.44144297  0.62132262     0.21300
N285        N  0.87309092  0.47858141  0.62490532    -0.32800
C286        C  0.86149107  0.44417813  0.62472583    -0.10400
C287        C  0.89007154  0.42039523  0.62250651    -0.29200
N288        N  0.01685491  0.45782744  0.62033228    -0.45800
C289        C  0.02873345  0.49191238  0.62254726    -0.05100
C290        C  0.00020679  0.51603662  0.62339607    -0.22400
H291        H  0.92517374  0.53270004  0.62524345     0.19400
H292        H  0.96482494  0.40406172  0.61903708     0.18200
H293        H  0.88900141  0.39143944  0.62233800     0.14500
H294        H  0.00151829  0.54474107  0.62586597     0.14300
H295        H  0.85761295  0.50164103  0.62698023     0.32500
H296        H  0.03224183  0.43450280  0.62012005     0.35200
C297        C  0.77620637  0.49406744  0.77473074     0.20800
C298        C  0.76897787  0.50354012  0.75120264    -0.39000
C299        C  0.77083011  0.47560303  0.73463684     0.19800
C300        C  0.77957078  0.44085990  0.74088247     0.22500
C301        C  0.78645854  0.43128266  0.76447786    -0.39500
C302        C  0.78418706  0.45917952  0.78110871     0.21300
N303        N  0.77436971  0.51534029  0.79392513    -0.32800
C304        C  0.78050914  0.49367973  0.81270234    -0.10400
C305        C  0.78684769  0.45852511  0.80541097    -0.29200
N306        N  0.77921616  0.41926163  0.72177719    -0.45800
C307        C  0.76982532  0.44043462  0.70330872    -0.05100
C308        C  0.76437378  0.47568135  0.71068745    -0.22400
H309        H  0.76179489  0.53056591  0.74620986     0.19400
H310        H  0.79242803  0.40400976  0.76958588     0.18200
H311        H  0.79149555  0.43537055  0.81650408     0.14500
H312        H  0.75667713  0.49836322  0.69992356     0.14300
H313        H  0.76745155  0.54242013  0.79434161     0.32500
H314        H  0.78459570  0.39183495  0.72136699     0.35200
C315        C  0.12089752  0.43280437  0.77420953     0.20800
C316        C  0.12759653  0.42406851  0.75036484    -0.39000
C317        C  0.12200397  0.45170083  0.73379060     0.19800
C318        C  0.11036506  0.48542581  0.74037090     0.22500
C319        C  0.10386055  0.49418866  0.76421471    -0.39500
C320        C  0.10985040  0.46672120  0.78081256     0.21300
N321        N  0.12594562  0.41195078  0.79344514    -0.32800
C322        C  0.11871238  0.43295168  0.81247116    -0.10400
C323        C  0.10856731  0.46724383  0.80524376    -0.29200
N324        N  0.10841534  0.50733218  0.72138650    -0.45800
C325        C  0.11921669  0.48755585  0.70253125    -0.05100
C326        C  0.12770583  0.45266318  0.70963435    -0.22400
H327        H  0.13727871  0.39793079  0.74514309     0.19400
H328        H  0.09566216  0.52077723  0.76953940     0.18200
H329        H  0.10210432  0.48984934  0.81643348     0.14500
H330        H  0.13759058  0.43108995  0.69863956     0.14300
H331        H  0.13542202  0.38565392  0.79367780     0.32500
H332        H  0.10105325  0.53429656  0.72135387     0.35200
C333        C  0.98911137  0.47379891  0.89957917     0.20800
C334        C  0.96505178  0.50261148  0.89852141    -0.39000
C335        C  0.92862270  0.49337212  0.89788756     0.19800
C336        C  0.91695782  0.45818569  0.89850164     0.22500
C337        C  0.94094730  0.42945693  0.89965795    -0.39500
C338        C  0.97729822  0.43865918  0.90008087     0.21300
N339        N  0.02506084  0.47513146  0.89783559    -0.32800
C340        C  0.03594718  0.44053949  0.89684315    -0.10400
C341        C  0.00696004  0.41716459  0.89852659    -0.29200
N342        N  0.88120989  0.45638068  0.89612530    -0.45800
C343        C  0.87008033  0.49067321  0.89374833    -0.05100
C344        C  0.89882592  0.51448494  0.89488979    -0.22400
H345        H  0.97404073  0.53009378  0.89725351     0.19400
H346        H  0.93203225  0.40189440  0.89922131     0.18200
H347        H  0.00737779  0.38826061  0.89719719     0.14500
H348        H  0.89810710  0.54330617  0.89296412     0.14300
H349        H  0.04090101  0.49798915  0.89588983     0.32500
H350        H  0.86555723  0.43325303  0.89525985     0.35200
C351        C  0.77667076  0.49322969  0.24151866     0.20800
C352        C  0.77196607  0.50374230  0.26519583    -0.39000
C353        C  0.77176463  0.47593693  0.28197706     0.19800
C354        C  0.77656849  0.44042412  0.27574270     0.22500
C355        C  0.78105509  0.42990048  0.25208057    -0.39500
C356        C  0.78057290  0.45760355  0.23527393     0.21300
N357        N  0.77513709  0.51414568  0.22210779    -0.32800
C358        C  0.77719391  0.49152593  0.20340322    -0.10400
C359        C  0.78088343  0.45612655  0.21093210    -0.29200
N360        N  0.77460502  0.41906559  0.29491227    -0.45800
C361        C  0.76802167  0.44107402  0.31347299    -0.05100
C362        C  0.76603626  0.47673282  0.30608389    -0.22400
H363        H  0.76770880  0.53141164  0.27012197     0.19400
H364        H  0.78361721  0.40206644  0.24704965     0.18200
H365        H  0.78207723  0.43234874  0.20002215     0.14500
H366        H  0.76093796  0.50008203  0.31691100     0.14300
H367        H  0.77084431  0.54175826  0.22159418     0.32500
H368        H  0.77689318  0.39120972  0.29528964     0.35200
C369        C  0.76666283  0.55564778  0.02978687     0.20800
C370        C  0.78170165  0.57154697  0.00938605    -0.39000
C371        C  0.76917011  0.55837105  0.98753534     0.19800
C372        C  0.74403782  0.53121142  0.98639248     0.22500
C373        C  0.72942563  0.51520255  0.00658745    -0.39500
C374        C  0.74158458  0.52850828  0.02819382     0.21300
N375        N  0.77456997  0.56225879  0.05266798    -0.32800
C376        C  0.75445032  0.53887539  0.06546389    -0.10400
C377        C  0.73361752  0.51753121  0.05075344    -0.29200
N378        N  0.73766431  0.52192330  0.96394976    -0.45800
C379        C  0.75870568  0.54310536  0.95034545    -0.05100
C380        C  0.77875982  0.56652313  0.96437322    -0.22400
H381        H  0.80191607  0.59222172  0.01044157     0.19400
H382        H  0.71033120  0.49347071  0.00553363     0.18200
H383        H  0.71591580  0.49591265  0.05588094     0.14500
H384        H  0.79891060  0.58539743  0.95854290     0.14300
H385        H  0.79350912  0.58032654  0.05910376     0.32500
H386        H  0.72079085  0.50139302  0.95823646     0.35200
C387        C  0.11640636  0.47271366  0.23313439     0.20800
C388        C  0.11399360  0.50290528  0.24804519    -0.39000
C389        C  0.11381597  0.49591001  0.27253672     0.19800
C390        C  0.11609562  0.46141571  0.28131159     0.22500
C391        C  0.11790956  0.43127905  0.26643243    -0.39500
C392        C  0.11783551  0.43823586  0.24201227     0.21300
N393        N  0.11894387  0.47227381  0.20936667    -0.32800
C394        C  0.12162012  0.43730459  0.20296150    -0.10400
C395        C  0.12075584  0.41520537  0.22289051    -0.29200
N396        N  0.11794169  0.46179225  0.30504103    -0.45800
C397        C  0.11671353  0.49667383  0.31171099    -0.05100
C398        C  0.11373618  0.51889635  0.29187091    -0.22400
H399        H  0.11319982  0.52988868  0.24108719     0.19400
H400        H  0.12007635  0.40437726  0.27339826     0.18200
H401        H  0.12321721  0.38635134  0.22337716     0.14500
H402        H  0.11319370  0.54785589  0.29156592     0.14300
H403        H  0.11916270  0.49449324  0.19813624     0.32500
H404        H  0.12068186  0.43953513  0.31608537     0.35200
C405        C  0.13861372  0.36588979  0.98595073     0.20800
C406        C  0.12242218  0.35179742  0.00657013    -0.39000
C407        C  0.13499118  0.36548208  0.02829408     0.19800
C408        C  0.16154401  0.39125734  0.02918102     0.22500
C409        C  0.17774172  0.40512904  0.00872895    -0.39500
C410        C  0.16520645  0.39158525  0.98718750     0.21300
N411        N  0.12931995  0.36004073  0.96318923    -0.32800
C412        C  0.14978455  0.38264272  0.95000251    -0.10400
C413        C  0.17268219  0.40239929  0.96441462    -0.29200
N414        N  0.16687462  0.40221569  0.05149418    -0.45800
C415        C  0.14377953  0.38343837  0.06525325    -0.05100
C416        C  0.12350606  0.35988055  0.05143982    -0.22400
H417        H  0.10073325  0.33265171  0.00573251     0.19400
H418        H  0.19763773  0.42615338  0.00951004     0.18200
H419        H  0.19079446  0.42353466  0.95904560     0.14500
H420        H  0.10196301  0.34264680  0.05731321     0.14300
H421        H  0.10871196  0.34356058  0.95714470     0.32500
H422        H  0.18444649  0.42229765  0.05697569     0.35200
C423        C  0.97594747  0.43969155  0.11886177     0.20800
C424        C  0.94053043  0.42732217  0.11732370    -0.39000
C425        C  0.91393089  0.45370910  0.11848496     0.19800
C426        C  0.92221790  0.48961868  0.12097469     0.22500
C427        C  0.95763572  0.50201208  0.12234814    -0.39500
C428        C  0.98423001  0.47563476  0.12115563     0.21300
N429        N  0.00570171  0.41975584  0.11985710    -0.32800
C430        C  0.03320812  0.44300894  0.12275183    -0.10400
C431        C  0.02096240  0.47825536  0.12346480    -0.29200
N432        N  0.89232887  0.50907964  0.12335174    -0.45800
C433        C  0.86471213  0.48555766  0.12252303    -0.05100
C434        C  0.87705588  0.45066528  0.11925525    -0.22400
H435        H  0.93415646  0.39912150  0.11608593     0.19400
H436        H  0.96394721  0.53002401  0.12489267     0.18200
H437        H  0.03652920  0.50224912  0.12647268     0.14500
H438        H  0.86137132  0.42632715  0.11866846     0.14300
H439        H  0.00711528  0.39183413  0.11931350     0.32500
H440        H  0.89087632  0.53666556  0.12624442     0.35200
C441        C  0.57947971  0.28318061  0.35469986     0.20800
C442        C  0.61052030  0.29667714  0.34411573    -0.39000
C443        C  0.62456245  0.32774903  0.35421714     0.19800
C444        C  0.60906823  0.34449082  0.37353781     0.22500
C445        C  0.57759503  0.33098195  0.38412810    -0.39500
C446        C  0.56331508  0.29964856  0.37389588     0.21300
N447        N  0.56472478  0.25113843  0.35052957    -0.32800
C448        C  0.53892453  0.24664831  0.36710007    -0.10400
C449        C  0.53667929  0.27664554  0.38182976    -0.29200
N450        N  0.63089568  0.37042782  0.38184971    -0.45800
C451        C  0.66046915  0.36949869  0.36782254    -0.05100
C452        C  0.65712104  0.34354965  0.35032399    -0.22400
H453        H  0.62422515  0.28251838  0.33005265     0.19400
H454        H  0.56643028  0.34259138  0.40005747     0.18200
H455        H  0.52082554  0.27935820  0.39778051     0.14500
H456        H  0.67748179  0.33490040  0.33791862     0.14300
H457        H  0.57376418  0.23205866  0.33839359     0.32500
H458        H  0.62752942  0.38516673  0.39739568     0.35200
C459        C  0.26399949  0.60022862  0.35573152     0.20800
C460        C  0.27890154  0.62992601  0.34431286    -0.39000
C461        C  0.30951646  0.64435128  0.35474479     0.19800
C462        C  0.32440635  0.63055036  0.37520391     0.22500
C463        C  0.30955988  0.60037684  0.38659553    -0.39500
C464        C  0.27882496  0.58561591  0.37597513     0.21300
N465        N  0.23198280  0.58564499  0.35125352    -0.32800
C466        C  0.22605420  0.56137320  0.36859622    -0.10400
C467        C  0.25492098  0.56007352  0.38422477    -0.29200
N468        N  0.34979696  0.65292220  0.38356907    -0.45800
C469        C  0.35048466  0.68110930  0.36837311    -0.05100
C470        C  0.32608262  0.67632013  0.35012220    -0.22400
H471        H  0.26604618  0.64252209  0.32932793     0.19400
H472        H  0.31970526  0.59062403  0.40331065     0.18200
H473        H  0.25629349  0.54561692  0.40079452     0.14500
H474        H  0.31855072  0.69570179  0.33678705     0.14300
H475        H  0.21387938  0.59381525  0.33828080     0.32500
H476        H  0.36285261  0.65106954  0.39983548     0.35200
C477        C  0.43473053  0.00059242  0.39667562     0.20800
C478        C  0.40632594  0.97605513  0.39620203    -0.39000
C479        C  0.41609414  0.93975969  0.39629557     0.19800
C480        C  0.45139613  0.92859000  0.39701100     0.22500
C481        C  0.47977400  0.95311317  0.39750634    -0.39500
C482        C  0.47002811  0.98938051  0.39720661     0.21300
N483        N  0.43275856  0.03648756  0.39473148    -0.32800
C484        C  0.46710951  0.04799030  0.39365826    -0.10400
C485        C  0.49099498  0.01944119  0.39537970    -0.29200
N486        N  0.45360952  0.89268230  0.39543857    -0.45800
C487        C  0.41943498  0.88103109  0.39345368    -0.05100
C488        C  0.39536387  0.90957869  0.39407005    -0.22400
H489        H  0.37872262  0.98455844  0.39496136     0.19400
H490        H  0.50744396  0.94460899  0.39723991     0.18200
H491        H  0.51988963  0.02043863  0.39427466     0.14500
H492        H  0.36657612  0.90845534  0.39221517     0.14300
H493        H  0.40963642  0.05193266  0.39298449     0.32500
H494        H  0.47688002  0.87725380  0.39476417     0.35200
C495        C  0.61176944  0.34462691  0.63931790     0.20800
C496        C  0.58251173  0.32950653  0.62712206    -0.39000
C497        C  0.56689198  0.29887068  0.63754713     0.19800
C498        C  0.57976015  0.28454321  0.65844334     0.22500
C499        C  0.60869648  0.29958573  0.67056788    -0.39500
C500        C  0.62413056  0.32995754  0.66023921     0.21300
N501        N  0.63459876  0.37011345  0.63147795    -0.32800
C502        C  0.66183558  0.37097660  0.64734064    -0.10400
C503        C  0.65585881  0.34660717  0.66558722    -0.29200
N504        N  0.56437387  0.25284439  0.66302671    -0.45800
C505        C  0.54134464  0.24644988  0.64509078    -0.05100
C506        C  0.54176997  0.27481166  0.62887894    -0.22400
H507        H  0.57402856  0.33945701  0.61005302     0.19400
H508        H  0.61999353  0.28702417  0.68610532     0.18200
H509        H  0.67427508  0.33928423  0.67951772     0.14500
H510        H  0.52861141  0.27580414  0.61186454     0.14300
H511        H  0.63371417  0.38318665  0.61515222     0.32500
H512        H  0.57123030  0.23517788  0.67661381     0.35200
C513        C  0.51471688  0.17039909  0.48569404     0.20800
C514        C  0.49767856  0.18168980  0.50635245    -0.39000
C515        C  0.51359532  0.17105471  0.52745811     0.19800
C516        C  0.54440371  0.15061361  0.52832676     0.22500
C517        C  0.56169695  0.13909779  0.50734801    -0.39500
C518        C  0.54551278  0.14984782  0.48586738     0.21300
N519        N  0.50283549  0.17533841  0.46367363    -0.32800
C520        C  0.52571456  0.15779454  0.44920439    -0.10400
C521        C  0.55315438  0.14166548  0.46232817    -0.29200
N522        N  0.55234512  0.14236966  0.55106135    -0.45800
C523        C  0.52595083  0.15757217  0.56431856    -0.05100
C524        C  0.50167770  0.17571400  0.55010460    -0.22400
H525        H  0.47296928  0.19678084  0.50600303     0.19400
H526        H  0.58521213  0.12223169  0.50771170     0.18200
H527        H  0.57447217  0.12478132  0.45573289     0.14500
H528        H  0.47741429  0.18923351  0.55558106     0.14300
H529        H  0.47947244  0.18879890  0.45884985     0.32500
H530        H  0.57317811  0.12613457  0.55703626     0.35200
C531        C  0.26690617  0.59774968  0.66125199     0.20800
C532        C  0.28136391  0.62794727  0.67234619    -0.39000
C533        C  0.31241139  0.64207300  0.66206230     0.19800
C534        C  0.32812332  0.62748493  0.64207062     0.22500
C535        C  0.31363602  0.59693509  0.63097148    -0.39500
C536        C  0.28246410  0.58251311  0.64141363     0.21300
N537        N  0.23477027  0.58314182  0.66560002    -0.32800
C538        C  0.22939224  0.55831092  0.64852521    -0.10400
C539        C  0.25885755  0.55665049  0.63326001    -0.29200
N540        N  0.35405559  0.64940503  0.63373367    -0.45800
C541        C  0.35429409  0.67819344  0.64841813    -0.05100
C542        C  0.32898909  0.67418065  0.66636927    -0.22400
H543        H  0.26795633  0.64103250  0.68697764     0.19400
H544        H  0.32445107  0.58657987  0.61456592     0.18200
H545        H  0.26082994  0.54176478  0.61688921     0.14500
H546        H  0.32102376  0.69406417  0.67928200     0.14300
H547        H  0.21621291  0.59171348  0.67824528     0.32500
H548        H  0.36786218  0.64681906  0.61773200     0.35200
C549        C  0.34785992  0.77488202  0.52983888     0.20800
C550        C  0.33188843  0.78968721  0.50943103    -0.39000
C551        C  0.34491035  0.77689811  0.48752213     0.19800
C552        C  0.37169756  0.75138557  0.48633178     0.22500
C553        C  0.38741692  0.73663938  0.50651416    -0.39500
C554        C  0.37459553  0.74939977  0.52815646     0.21300
N555        N  0.34283589  0.78448885  0.55267779    -0.32800
C556        C  0.36696817  0.76518248  0.56532015    -0.10400
C557        C  0.38693382  0.74294396  0.55056777    -0.29200
N558        N  0.38214722  0.74606931  0.46394779    -0.45800
C559        C  0.36226879  0.76830758  0.45041832    -0.05100
C560        C  0.33818625  0.78777326  0.46441483    -0.22400
H561        H  0.31195197  0.81061753  0.51051046     0.19400
H562        H  0.40930283  0.71773966  0.50541504     0.18200
H563        H  0.40896971  0.72570497  0.55548028     0.14500
H564        H  0.32028510  0.80880981  0.45871451     0.14300
H565        H  0.32568050  0.80433376  0.55906597     0.32500
H566        H  0.40300588  0.72950615  0.45830170     0.35200
C567        C  0.44085746  0.99727676  0.62102488     0.20800
C568        C  0.41255439  0.97264254  0.62156055    -0.39000
C569        C  0.42241058  0.93639193  0.62110702     0.19800
C570        C  0.45771644  0.92528764  0.62013589     0.22500
C571        C  0.48605823  0.94995057  0.61972040    -0.39500
C572        C  0.47620038  0.98624751  0.62022813     0.21300
N573        N  0.43865898  0.03319835  0.62250586    -0.32800
C574        C  0.47290581  0.04505932  0.62290068    -0.10400
C575        C  0.49699453  0.01657980  0.62137400    -0.29200
N576        N  0.45989804  0.88926833  0.62092084    -0.45800
C577        C  0.42566935  0.87751801  0.62259413    -0.05100
C578        C  0.40166329  0.90613675  0.62267956    -0.22400
H579        H  0.38490823  0.98104754  0.62278726     0.19400
H580        H  0.51375295  0.94152711  0.61956110     0.18200
H581        H  0.52590741  0.01785765  0.62187453     0.14500
H582        H  0.37284842  0.90496377  0.62446578     0.14300
H583        H  0.41542248  0.04853565  0.62406890     0.32500
H584        H  0.48314580  0.87378906  0.62120714     0.35200
C585        C  0.57128440  0.62639729  0.87411699     0.20800
C586        C  0.58589770  0.59624180  0.88554498    -0.39000
C587        C  0.61673895  0.58142812  0.87501758     0.19800
C588        C  0.63179742  0.59584037  0.85472049     0.22500
C589        C  0.61713357  0.62559797  0.84325538    -0.39500
C590        C  0.58651558  0.64025135  0.85370985     0.21300
N591        N  0.54597244  0.64882703  0.88254863    -0.32800
C592        C  0.54573408  0.67721076  0.86754575    -0.10400
C593        C  0.57032444  0.67249532  0.84927555    -0.29200
N594        N  0.66393199  0.58128450  0.85041052    -0.45800
C595        C  0.66974310  0.55734610  0.86796289    -0.05100
C596        C  0.64064075  0.55618137  0.88352327    -0.22400
H597        H  0.57557857  0.58663739  0.90229711     0.19400
H598        H  0.63025836  0.63815764  0.82829952     0.18200
H599        H  0.57814962  0.69199409  0.83605220     0.14500
H600        H  0.63914001  0.54214597  0.90025244     0.14300
H601        H  0.53267819  0.64686784  0.89878080     0.32500
H602        H  0.68224513  0.58941673  0.83747535     0.35200
C603        C  0.47968248  0.78565168  0.77340168     0.20800
C604        C  0.48941504  0.78461081  0.74933402    -0.39000
C605        C  0.46100032  0.78593323  0.73303631     0.19800
C606        C  0.42559541  0.78842202  0.74008904     0.22500
C607        C  0.41586988  0.78902329  0.76410934    -0.39500
C608        C  0.44420413  0.78739497  0.78037486     0.21300
N609        N  0.50143597  0.78398216  0.79242789    -0.32800
C610        C  0.47948820  0.78417991  0.81161778    -0.10400
C611        C  0.44370246  0.78626541  0.80471887    -0.29200
N612        N  0.40360315  0.78865672  0.72120474    -0.45800
C613        C  0.42512534  0.78579054  0.70194240    -0.05100
C614        C  0.46106953  0.78409245  0.70865771    -0.22400
H615        H  0.51702392  0.78246476  0.74369697     0.19400
H616        H  0.38820396  0.79019632  0.76975082     0.18200
H617        H  0.42033508  0.78651331  0.81607384     0.14500
H618        H  0.48414881  0.78123592  0.69720391     0.14300
H619        H  0.52928498  0.78183500  0.79235529     0.32500
H620        H  0.37568594  0.78957552  0.72143655     0.35200
C621        C  0.26589389  0.32366227  0.85115581     0.20800
C622        C  0.27775785  0.29193470  0.84055387    -0.39000
C623        C  0.30854815  0.27666403  0.85027829     0.19800
C624        C  0.32658235  0.29183511  0.86913517     0.22500
C625        C  0.31470652  0.32386377  0.87973560    -0.39500
C626        C  0.28364382  0.33924200  0.86999214     0.21300
N627        N  0.23420959  0.33953631  0.84763310    -0.32800
C628        C  0.23128385  0.36538092  0.86430476    -0.10400
C629        C  0.26191074  0.36652746  0.87839889    -0.29200
N630        N  0.35188025  0.26920403  0.87725306    -0.45800
C631        C  0.34926477  0.23933740  0.86370047    -0.05100
C632        C  0.32282987  0.24326918  0.84658986    -0.22400
H633        H  0.26253377  0.27863640  0.82686806     0.19400
H634        H  0.32723887  0.33463068  0.89543069     0.18200
H635        H  0.26571433  0.38197067  0.89438925     0.14500
H636        H  0.31295121  0.22294683  0.83461983     0.14300
H637        H  0.21424618  0.33106848  0.83600807     0.32500
H638        H  0.36727174  0.27234444  0.89250050     0.35200
C639        C  0.45023151  0.12516381  0.78021046     0.20800
C640        C  0.48032655  0.12366202  0.76521127    -0.39000
C641        C  0.47353980  0.12755459  0.74091217     0.19800
C642        C  0.43934265  0.13290820  0.73233854     0.22500
C643        C  0.40917847  0.13391838  0.74730704    -0.39500
C644        C  0.41592376  0.12963071  0.77159265     0.21300
N645        N  0.44994553  0.12458323  0.80398056    -0.32800
C646        C  0.41526206  0.12840576  0.81069445    -0.10400
C647        C  0.39308725  0.13124602  0.79094088    -0.29200
N648        N  0.44013716  0.13778005  0.70878483    -0.45800
C649        C  0.47499445  0.13526900  0.70214140    -0.05100
C650        C  0.49670211  0.12862705  0.72172123    -0.22400
H651        H  0.50715996  0.12050454  0.77202726     0.19400
H652        H  0.38250262  0.13849793  0.74057097     0.18200
H653        H  0.36453876  0.13601069  0.79078397     0.14500
H654        H  0.52551640  0.12593231  0.72197192     0.14300
H655        H  0.47220324  0.12275807  0.81504760     0.32500
H656        H  0.41821615  0.14280159  0.69785592     0.35200
C657        C  0.44070354  0.92308908  0.89396501     0.20800
C658        C  0.41186275  0.94694392  0.89550268    -0.39000
C659        C  0.42084896  0.98341001  0.89494745     0.19800
C660        C  0.45583963  0.99532823  0.89308005     0.22500
C661        C  0.48463847  0.97148224  0.89141337    -0.39500
C662        C  0.47565068  0.93505432  0.89191623     0.21300
N663        N  0.43928265  0.88711010  0.89308343    -0.32800
C664        C  0.47361138  0.87630973  0.89027778    -0.10400
C665        C  0.49697371  0.90539965  0.88955354    -0.29200
N666        N  0.45706421  0.03124899  0.89157333    -0.45800
C667        C  0.42253713  0.04213909  0.89218555    -0.05100
C668        C  0.39925879  0.01312361  0.89444814    -0.22400
H669        H  0.38441358  0.93782156  0.89647185     0.19400
H670        H  0.51195242  0.98059344  0.88931084     0.18200
H671        H  0.52568229  0.90490825  0.88701743     0.14500
H672        H  0.37030931  0.01363819  0.89459848     0.14300
H673        H  0.41642579  0.87103920  0.89364878     0.32500
H674        H  0.47974682  0.04715912  0.88907208     0.35200
C675        C  0.56790708  0.62763256  0.14481663     0.20800
C676        C  0.58087080  0.59618672  0.13391234    -0.39000
C677        C  0.61254979  0.58166877  0.14347198     0.19800
C678        C  0.62976124  0.59750908  0.16242378     0.22500
C679        C  0.61678648  0.62854128  0.17334327    -0.39500
C680        C  0.58545744  0.64294704  0.16381649     0.21300
N681        N  0.54201443  0.64978553  0.13686169    -0.32800
C682        C  0.54382646  0.67950090  0.15066166    -0.10400
C683        C  0.57024920  0.67584789  0.16779377    -0.29200
N684        N  0.66191164  0.58258408  0.16591262    -0.45800
C685        C  0.66577609  0.55698732  0.14915492    -0.05100
C686        C  0.63522570  0.55512107  0.13495569    -0.22400
H687        H  0.56864958  0.58530058  0.11814603     0.19400
H688        H  0.63157424  0.64206590  0.18714120     0.18200
H689        H  0.57965261  0.69621607  0.17989686     0.14500
H690        H  0.63187145  0.53957126  0.11896747     0.14300
H691        H  0.52682949  0.64658406  0.12152918     0.32500
H692        H  0.68145178  0.59140131  0.17773646     0.35200
C693        C  0.45291925  0.79014784  0.28266635     0.20800
C694        C  0.48282813  0.79093947  0.26746560    -0.39000
C695        C  0.47534310  0.79128890  0.24310331     0.19800
C696        C  0.44066650  0.79037777  0.23464387     0.22500
C697        C  0.41078191  0.79004882  0.24982988    -0.39500
C698        C  0.41825627  0.79021552  0.27416488     0.21300
N699        N  0.45289855  0.78862833  0.30644397    -0.32800
C700        C  0.41801606  0.78823670  0.31322284    -0.10400
C701        C  0.39556080  0.78933287  0.29355160    -0.29200
N702        N  0.44061792  0.78870712  0.21089714    -0.45800
C703        C  0.47544366  0.78885461  0.20402375    -0.05100
C704        C  0.49798843  0.79077788  0.22364227    -0.22400
H705        H  0.50993691  0.79078548  0.27412368     0.19400
H706        H  0.38368483  0.78922627  0.24316944     0.18200
H707        H  0.36662451  0.78859118  0.29343534     0.14500
H708        H  0.52692894  0.79030077  0.22370140     0.14300
H709        H  0.47530148  0.78778490  0.31743371     0.32500
H710        H  0.41817629  0.78692906  0.19999003     0.35200
C711        C  0.51401245  0.75671552  0.98686821     0.20800
C712        C  0.49690350  0.74427510  0.00730075    -0.39000
C713        C  0.51274655  0.75384475  0.02871898     0.19800
C714        C  0.54332978  0.77458558  0.03002383     0.22500
C715        C  0.56066113  0.78718748  0.00932342    -0.39500
C716        C  0.54478750  0.77726591  0.98758228     0.21300
N717        N  0.50306895  0.75185318  0.96457874    -0.32800
C718        C  0.52682410  0.76911678  0.95048762    -0.10400
C719        C  0.55350405  0.78541313  0.96418425    -0.29200
N720        N  0.55128478  0.78169937  0.05291178    -0.45800
C721        C  0.52525035  0.76542165  0.06594574    -0.05100
C722        C  0.50113660  0.74763986  0.05135836    -0.22400
H723        H  0.47245826  0.72877376  0.00657362     0.19400
H724        H  0.58425335  0.80393220  0.01008488     0.18200
H725        H  0.57550595  0.80177137  0.95797494     0.14500
H726        H  0.47708627  0.73352038  0.05660433     0.14300
H727        H  0.48019373  0.73796543  0.95927684     0.32500
H728        H  0.57193901  0.79792817  0.05917147     0.35200
C729        C  0.31259234  0.28104776  0.15994069     0.20800
C730        C  0.28266544  0.29540436  0.17143431    -0.39000
C731        C  0.26749155  0.32565688  0.16090141     0.19800
C732        C  0.28101824  0.34084797  0.14039636     0.22500
C733        C  0.31127941  0.32646832  0.12886750    -0.39500
C734        C  0.32662670  0.29598739  0.13949042     0.21300
N735        N  0.32784052  0.24932209  0.16448383    -0.32800
C736        C  0.35186520  0.24364393  0.14693732    -0.10400
C737        C  0.35233784  0.27240586  0.13110755    -0.29200
N738        N  0.25849742  0.36623132  0.13221999    -0.45800
C739        C  0.23039516  0.36659995  0.14751429    -0.05100
C740        C  0.23532318  0.34186880  0.16563832    -0.22400
H741        H  0.27050694  0.28240059  0.18657723     0.19400
H742        H  0.32072326  0.33679024  0.11207677     0.18200
H743        H  0.36630099  0.27381603  0.11432933     0.14500
H744        H  0.21618208  0.33427686  0.17915479     0.14300
H745        H  0.32012724  0.23110711  0.17758063     0.32500
H746        H  0.26035022  0.37975392  0.11608291     0.35200
C747        C  0.44734849  0.12836383  0.23393581     0.20800
C748        C  0.47673199  0.12613603  0.24933956    -0.39000
C749        C  0.46911204  0.13082696  0.27348338     0.19800
C750        C  0.43482620  0.13753047  0.28162210     0.22500
C751        C  0.40532125  0.13930000  0.26622978    -0.39500
C752        C  0.41289729  0.13426435  0.24206202     0.21300
N753        N  0.44802085  0.12722220  0.21017157    -0.32800
C754        C  0.41379228  0.13218302  0.20296013    -0.10400
C755        C  0.39094801  0.13624976  0.22238649    -0.29200
N756        N  0.43489105  0.14241735  0.30521261    -0.45800
C757        C  0.46938715  0.13847596  0.31223305    -0.05100
C758        C  0.49152407  0.13112219  0.29290554    -0.22400
H759        H  0.50369138  0.12178262  0.24293161     0.19400
H760        H  0.37854718  0.14487157  0.27256106     0.18200
H761        H  0.36258328  0.14199078  0.22210350     0.14500
H762        H  0.52019232  0.12713421  0.29300437     0.14300
H763        H  0.47062759  0.12428251  0.19943007     0.32500
H764        H  0.41278164  0.14815093  0.31590922     0.35200
C765        C  0.38074513  0.16740379  0.98521820     0.20800
C766        C  0.39830582  0.17911197  0.00562234    -0.39000
C767        C  0.38222619  0.16977387  0.02711918     0.19800
C768        C  0.35090532  0.15013255  0.02846706     0.22500
C769        C  0.33309570  0.13842065  0.00784235    -0.39500
C770        C  0.34929995  0.14788821  0.98608596     0.21300
N771        N  0.39217946  0.17125302  0.96287203    -0.32800
C772        C  0.36810899  0.15419733  0.94899975    -0.10400
C773        C  0.34067118  0.13933749  0.96282757    -0.29200
N774        N  0.34289967  0.14261227  0.05130446    -0.45800
C775        C  0.36964983  0.15740643  0.06431642    -0.05100
C776        C  0.39429600  0.17478418  0.04976329    -0.22400
H777        H  0.42339642  0.19354697  0.00482105     0.19400
H778        H  0.30907117  0.12229738  0.00867148     0.18200
H779        H  0.31842992  0.12322454  0.95681783     0.14500
H780        H  0.41889896  0.18781212  0.05500319     0.14300
H781        H  0.41573499  0.18391468  0.95742842     0.32500
H782        H  0.32168216  0.12700043  0.05752734     0.35200
C783        C  0.41925861  0.98641851  0.12098934     0.20800
C784        C  0.40765427  0.95072052  0.12230881    -0.39000
C785        C  0.43459041  0.92470274  0.12105472     0.19800
C786        C  0.47035752  0.93371503  0.11880845     0.22500
C787        C  0.48195718  0.96943196  0.11733648    -0.39500
C788        C  0.45498365  0.99545636  0.11849286     0.21300
N789        N  0.39910663  0.01590885  0.12323208    -0.32800
C790        C  0.42203416  0.04399983  0.12222944    -0.10400
C791        C  0.45718828  0.03237779  0.11908045    -0.29200
N792        N  0.49087491  0.90430430  0.11977856    -0.45800
C793        C  0.46811284  0.87633133  0.12262994    -0.05100
C794        C  0.43267929  0.88791997  0.12329176    -0.22400
H795        H  0.37978852  0.94376775  0.12480490     0.19400
H796        H  0.50999422  0.97644178  0.11608750     0.18200
H797        H  0.48115887  0.04860302  0.11836567     0.14500
H798        H  0.40898135  0.87187414  0.12628367     0.14300
H799        H  0.37148707  0.01681992  0.12604801     0.32500
H800        H  0.51880160  0.90341898  0.11931758     0.35200
loop_ 
_geom_bond_atom_site_label_1 
_geom_bond_atom_site_label_2 
_geom_bond_distance 
_geom_bond_site_symmetry_2 
_ccdc_geom_bond_type 
O1            V9   1.917       .  S
O1           C11   1.267       .  A
O2            V9   1.912       .  S
O2           C12   1.267       .  A
O3            V9   1.888       .  S
O3           C13   1.262       .  A
O4            V9   1.896       .  S
O4           C14   1.262       .  A
O5           V10   1.921       .  S
O5           C14   1.269       .  A
O6           V10   1.926       .  S
O6           C13   1.269       .  A
O7           V10   1.889       .  S
O7           C12   1.261       .  A
O8           V10   1.888       .  S
O8           C11   1.261       .  A
V9           V10   2.087       .  T
C11         C736   1.469       .  S
C12         C790   1.471       .  S
C13         C775   1.481       .  S
C14         C754   1.479       .  S
O15          V23   1.922       .  S
O15          C25   1.268       .  A
O16          V23   1.916       .  S
O16          C26   1.268       .  A
O17          V23   1.886       .  S
O17          C27   1.262       .  A
O18          V23   1.892       .  S
O18          C28   1.261       .  A
O19          V24   1.923       .  S
O19          C28   1.270       .  A
O20          V24   1.928       .  S
O20          C27   1.270       .  A
O21          V24   1.887       .  S
O21          C26   1.260       .  A
O22          V24   1.887       .  S
O22          C25   1.261       .  A
V23          V24   2.087       .  T
C25         C682   1.475       .  S
C26         C793   1.471       .  S
C27         C721   1.481       .  S
C28         C703   1.479       .  S
O29          V37   1.921       .  S
O29          C39   1.268       .  A
O30          V37   1.915       .  S
O30          C40   1.268       .  A
O31          V37   1.892       .  S
O31          C41   1.261       .  A
O32          V37   1.888       .  S
O32          C42   1.261       .  A
O33          V38   1.927       .  S
O33          C42   1.270       .  A
O34          V38   1.924       .  S
O34          C41   1.270       .  A
O35          V38   1.883       .  S
O35          C40   1.259       .  A
O36          V38   1.884       .  S
O36          C39   1.260       .  A
V37          V38   2.087       .  T
C39         C631   1.472       .  S
C40         C667   1.468       .  S
C41         C646   1.479       .  S
C42         C772   1.481       .  S
O43          V51   1.920       .  S
O43          C53   1.268       .  A
O44          V51   1.915       .  S
O44          C54   1.268       .  A
O45          V51   1.890       .  S
O45          C55   1.261       .  A
O46          V51   1.886       .  S
O46          C56   1.261       .  A
O47          V52   1.931       .  S
O47          C56   1.271       .  A
O48          V52   1.928       .  S
O48          C55   1.271       .  A
O49          V52   1.881       .  S
O49          C54   1.259       .  A
O50          V52   1.883       .  S
O50          C53   1.260       .  A
V51          V52   2.087       .  T
C53         C592   1.469       .  S
C54         C664   1.467       .  S
C55         C610   1.482       .  S
C56         C718   1.483       .  S
O57          V65   1.927       .  S
O57          C67   1.270       .  A
O58          V65   1.924       .  S
O58          C68   1.270       .  A
O59          V65   1.891       .  S
O59          C69   1.261       .  A
O60          V65   1.886       .  S
O60          C70   1.261       .  A
O61          V66   1.927       .  S
O61          C70   1.270       .  A
O62          V66   1.925       .  S
O62          C69   1.271       .  A
O63          V66   1.881       .  S
O63          C68   1.259       .  A
O64          V66   1.882       .  S
O64          C67   1.259       .  A
V65          V66   2.087       .  T
C67         C541   1.475       .  S
C68         C577   1.474       .  S
C69         C613   1.481       .  S
C70         C556   1.478       .  S
O71          V79   1.924       .  S
O71          C81   1.269       .  A
O72          V79   1.919       .  S
O72          C82   1.269       .  A
O73          V79   1.891       .  S
O73          C83   1.261       .  A
O74          V79   1.879       .  S
O74          C84   1.260       .  A
O75          V80   1.929       .  S
O75          C84   1.270       .  A
O76          V80   1.925       .  S
O76          C83   1.271       .  A
O77          V80   1.887       .  S
O77          C82   1.260       .  A
O78          V80   1.890       .  S
O78          C81   1.261       .  A
V79          V80   2.086       .  T
C81         C505   1.476       .  S
C82         C574   1.474       .  S
C83         C649   1.480       .  S
C84         C523   1.477       .  S
O85          V93   1.922       .  S
O85          C95   1.268       .  A
O86          V93   1.919       .  S
O86          C96   1.269       .  A
O87          V93   1.885       .  S
O87          C97   1.261       .  A
O88          V93   1.895       .  S
O88          C98   1.261       .  A
O89          V94   1.920       .  S
O89          C98   1.270       .  A
O90          V94   1.923       .  S
O90          C97   1.269       .  A
O91          V94   1.883       .  S
O91          C96   1.259       .  A
O92          V94   1.881       .  S
O92          C95   1.260       .  A
V93          V94   2.087       .  T
C95         C469   1.470       .  S
C96         C487   1.472       .  S
C97         C559   1.475       .  S
C98         C700   1.479       .  S
O99         V107   1.919       .  S
O99         C109   1.268       .  A
O100        V107   1.917       .  S
O100        C110   1.268       .  A
O101        V107   1.885       .  S
O101        C111   1.262       .  A
O102        V107   1.898       .  S
O102        C112   1.262       .  A
O103        V108   1.918       .  S
O103        C112   1.269       .  A
O104        V108   1.924       .  S
O104        C111   1.268       .  A
O105        V108   1.884       .  S
O105        C110   1.260       .  A
O106        V108   1.886       .  S
O106        C109   1.260       .  A
V107        V108   2.087       .  T
C109        C448   1.471       .  S
C110        C484   1.471       .  S
C111        C520   1.477       .  S
C112        C757   1.480       .  S
O113        V121   1.922       .  S
O113        C123   1.268       .  A
O114        V121   1.918       .  S
O114        C124   1.269       .  A
O115        V121   1.898       .  S
O115        C125   1.262       .  A
O116        V121   1.892       .  S
O116        C126   1.262       .  A
O117        V122   1.926       .  S
O117        C126   1.270       .  A
O118        V122   1.924       .  S
O118        C125   1.270       .  A
O119        V122   1.884       .  S
O119        C124   1.259       .  A
O120        V122   1.886       .  S
O120        C123   1.260       .  A
V121        V122   2.087       .  T
C123        C739   1.472       .  S
C124        C430   1.471       .  S
C125        C394   1.483       .  S
C126        C415   1.482       .  S
O127        V135   1.925       .  S
O127        C137   1.269       .  A
O128        V135   1.919       .  S
O128        C138   1.269       .  A
O129        V135   1.892       .  S
O129        C139   1.262       .  A
O130        V135   1.886       .  S
O130        C140   1.261       .  A
O131        V136   1.919       .  S
O131        C140   1.268       .  A
O132        V136   1.917       .  S
O132        C139   1.268       .  A
O133        V136   1.883       .  S
O133        C138   1.259       .  A
O134        V136   1.887       .  S
O134        C137   1.260       .  A
V135        V136   2.088       .  T
C137        C685   1.475       .  S
C138        C433   1.472       .  S
C139        C358   1.475       .  S
C140        C376   1.474       .  S
O141        V149   1.920       .  S
O141        C151   1.268       .  A
O142        V149   1.918       .  S
O142        C152   1.268       .  A
O143        V149   1.897       .  S
O143        C153   1.263       .  A
O144        V149   1.903       .  S
O144        C154   1.264       .  A
O145        V150   1.921       .  S
O145        C154   1.269       .  A
O146        V150   1.922       .  S
O146        C153   1.269       .  A
O147        V150   1.885       .  S
O147        C152   1.260       .  A
O148        V150   1.885       .  S
O148        C151   1.260       .  A
V149        V150   2.087       .  T
C151        C628   1.471       .  S
C152        C340   1.472       .  S
C153        C412   1.482       .  S
C154        C322   1.483       .  S
O155        V163   1.919       .  S
O155        C165   1.268       .  A
O156        V163   1.913       .  S
O156        C166   1.268       .  A
O157        V163   1.882       .  S
O157        C167   1.260       .  A
O158        V163   1.889       .  S
O158        C168   1.260       .  A
O159        V164   1.918       .  S
O159        C168   1.269       .  A
O160        V164   1.923       .  S
O160        C167   1.269       .  A
O161        V164   1.887       .  S
O161        C166   1.260       .  A
O162        V164   1.889       .  S
O162        C165   1.261       .  A
V163        V164   2.088       .  T
C165        C595   1.470       .  S
C166        C343   1.471       .  S
C167        C379   1.473       .  S
C168        C304   1.472       .  S
O169        V177   1.924       .  S
O169        C179   1.269       .  A
O170        V177   1.921       .  S
O170        C180   1.269       .  A
O171        V177   1.887       .  S
O171        C181   1.262       .  A
O172        V177   1.891       .  S
O172        C182   1.261       .  A
O173        V178   1.920       .  S
O173        C182   1.269       .  A
O174        V178   1.925       .  S
O174        C181   1.269       .  A
O175        V178   1.885       .  S
O175        C180   1.260       .  A
O176        V178   1.889       .  S
O176        C179   1.261       .  A
V177        V178   2.086       .  T
C179        C502   1.476       .  S
C180        C286   1.474       .  S
C181        C268   1.479       .  S
C182        C307   1.477       .  S
O183        V191   1.923       .  S
O183        C193   1.269       .  A
O184        V191   1.922       .  S
O184        C194   1.270       .  A
O185        V191   1.889       .  S
O185        C195   1.261       .  A
O186        V191   1.896       .  S
O186        C196   1.262       .  A
O187        V192   1.930       .  S
O187        C196   1.272       .  A
O188        V192   1.934       .  S
O188        C195   1.272       .  A
O189        V192   1.881       .  S
O189        C194   1.258       .  A
O190        V192   1.887       .  S
O190        C193   1.260       .  A
V191        V192   2.086       .  T
C193        C538   1.474       .  S
C194        C289   1.473       .  S
C195        C250   1.485       .  S
C196        C325   1.489       .  S
O197        V205   1.924       .  S
O197        C207   1.269       .  A
O198        V205   1.920       .  S
O198        C208   1.269       .  A
O199        V205   1.893       .  S
O199        C209   1.261       .  A
O200        V205   1.884       .  S
O200        C210   1.262       .  A
O201        V206   1.927       .  S
O201        C210   1.269       .  A
O202        V206   1.919       .  S
O202        C209   1.269       .  A
O203        V206   1.880       .  S
O203        C208   1.259       .  A
O204        V206   1.882       .  S
O204        C207   1.260       .  A
V205        V206   2.087       .  T
C207        C451   1.472       .  S
C208        C235   1.471       .  S
C209        C361   1.477       .  S
C210        C271   1.480       .  S
O211        V219   1.916       .  S
O211        C221   1.267       .  A
O212        V219   1.914       .  S
O212        C222   1.268       .  A
O213        V219   1.894       .  S
O213        C223   1.262       .  A
O214        V219   1.893       .  S
O214        C224   1.262       .  A
O215        V220   1.930       .  S
O215        C224   1.271       .  A
O216        V220   1.927       .  S
O216        C223   1.271       .  A
O217        V220   1.887       .  S
O217        C222   1.260       .  A
O218        V220   1.888       .  S
O218        C221   1.261       .  A
V219        V220   2.087       .  T
C221        C466   1.469       .  S
C222        C232   1.470       .  S
C223        C397   1.484       .  S
C224        C253   1.485       .  S
C225        C230   1.384       .  A
C225        C226   1.406       .  A
C225        N231   1.342       .  A
C226        C227   1.403       .  A
C226        H237   1.082       .  S
C227        C236   1.385       .  A
C227        C228   1.384       .  A
C228        C229   1.403       .  A
C228        N234   1.339       .  A
C229        C230   1.400       .  A
C229        H238   1.082       .  S
C230        C233   1.381   1_655  A
N231        C232   1.357   1_655  A
N231        H241   1.045       .  S
C232        C233   1.394       .  A
C233        H239   1.082       .  S
N234        C235   1.356       .  A
N234        H242   1.045       .  S
C235        C236   1.396       .  A
C236        H240   1.082       .  S
C243        C248   1.383       .  A
C243        C244   1.403       .  A
C243        N249   1.342       .  A
C244        C245   1.401       .  A
C244        H255   1.083       .  S
C245        C254   1.376       .  A
C245        C246   1.383       .  A
C246        C247   1.415       .  A
C246        N252   1.354       .  A
C247        C248   1.415       .  A
C247        H256   1.082       .  S
C248        C251   1.394       .  A
N249        C250   1.356       .  A
N249        H259   1.045       .  S
C250        C251   1.402       .  A
C251        H257   1.082       .  S
N252        C253   1.361       .  A
N252        H260   1.044       .  S
C253        C254   1.395       .  A
C254        H258   1.083       .  S
C261        C266   1.384       .  A
C261        C262   1.395       .  A
C261        N267   1.337       .  A
C262        C263   1.394       .  A
C262        H273   1.083       .  S
C263        C272   1.367       .  A
C263        C264   1.383       .  A
C264        C265   1.416       .  A
C264        N270   1.356       .  A
C265        C266   1.417       .  A
C265        H274   1.082       .  S
C266        C269   1.394       .  A
N267        C268   1.352       .  A
N267        H277   1.045       .  S
C268        C269   1.403       .  A
C269        H275   1.082       .  S
N270        C271   1.362       .  A
N270        H278   1.044       .  S
C271        C272   1.391       .  A
C272        H276   1.083       .  S
C279        C284   1.385       .  A
C279        C280   1.404       .  A
C279        N285   1.349       .  A
C280        C281   1.406       .  A
C280        H291   1.082       .  S
C281        C290   1.375   1_655  A
C281        C282   1.385       .  A
C282        C283   1.402       .  A
C282        N288   1.347   1_655  A
C283        C284   1.404       .  A
C283        H292   1.082       .  S
C284        C287   1.373       .  A
N285        C286   1.356       .  A
N285        H295   1.044       .  S
C286        C287   1.395       .  A
C287        H293   1.082       .  S
N288        C289   1.354       .  A
N288        H296   1.044       .  S
C289        C290   1.397       .  A
C290        H294   1.083       .  S
C297        C302   1.385       .  A
C297        C298   1.403       .  A
C297        N303   1.347       .  A
C298        C299   1.404       .  A
C298        H309   1.082       .  S
C299        C308   1.376       .  A
C299        C300   1.384       .  A
C300        C301   1.405       .  A
C300        N306   1.348       .  A
C301        C302   1.406       .  A
C301        H310   1.082       .  S
C302        C305   1.378       .  A
N303        C304   1.355       .  A
N303        H313   1.045       .  S
C304        C305   1.397       .  A
C305        H311   1.082       .  S
N306        C307   1.357       .  A
N306        H314   1.044       .  S
C307        C308   1.396       .  A
C308        H312   1.082       .  S
C315        C320   1.384       .  A
C315        C316   1.409       .  A
C315        N321   1.351       .  A
C316        C317   1.410       .  A
C316        H327   1.082       .  S
C317        C326   1.382       .  A
C317        C318   1.384       .  A
C318        C319   1.408       .  A
C318        N324   1.351       .  A
C319        C320   1.408       .  A
C319        H328   1.082       .  S
C320        C323   1.382       .  A
N321        C322   1.358       .  A
N321        H331   1.045       .  S
C322        C323   1.397       .  A
C323        H329   1.082       .  S
N324        C325   1.358       .  A
N324        H332   1.044       .  S
C325        C326   1.401       .  A
C326        H330   1.082       .  S
C333        C338   1.385       .  A
C333        C334   1.404       .  A
C333        N339   1.348   1_655  A
C334        C335   1.405       .  A
C334        H345   1.082       .  S
C335        C344   1.376       .  A
C335        C336   1.385       .  A
C336        C337   1.401       .  A
C336        N342   1.345       .  A
C337        C338   1.402       .  A
C337        H346   1.082       .  S
C338        C341   1.372   1_655  A
N339        C340   1.356       .  A
N339        H349   1.044       .  S
C340        C341   1.394       .  A
C341        H347   1.083       .  S
N342        C343   1.354       .  A
N342        H350   1.045       .  S
C343        C344   1.396       .  A
C344        H348   1.082       .  S
C351        C356   1.385       .  A
C351        C352   1.405       .  A
C351        N357   1.348       .  A
C352        C353   1.406       .  A
C352        H363   1.082       .  S
C353        C362   1.379       .  A
C353        C354   1.385       .  A
C354        C355   1.404       .  A
C354        N360   1.347       .  A
C355        C356   1.405       .  A
C355        H364   1.082       .  S
C356        C359   1.377       .  A
N357        C358   1.356       .  A
N357        H367   1.044       .  S
C358        C359   1.396       .  A
C359        H365   1.082       .  S
N360        C361   1.355       .  A
N360        H368   1.044       .  S
C361        C362   1.398       .  A
C362        H366   1.082       .  S
C369        C374   1.384       .  A
C369        C370   1.412       .  A
C369        N375   1.350       .  A
C370        C371   1.411   1_554  A
C370        H381   1.082       .  S
C371        C380   1.390       .  A
C371        C372   1.384       .  A
C372        C373   1.398   1_556  A
C372        N378   1.337       .  A
C373        C374   1.396       .  A
C373        H382   1.083       .  S
C374        C377   1.371       .  A
N375        C376   1.359       .  A
N375        H385   1.044       .  S
C376        C377   1.392       .  A
C377        H383   1.083       .  S
N378        C379   1.353       .  A
N378        H386   1.045       .  S
C379        C380   1.400       .  A
C380        H384   1.082       .  S
C387        C392   1.383       .  A
C387        C388   1.411       .  A
C387        N393   1.347       .  A
C388        C389   1.409       .  A
C388        H399   1.082       .  S
C389        C398   1.390       .  A
C389        C390   1.383       .  A
C390        C391   1.407       .  A
C390        N396   1.343       .  A
C391        C392   1.404       .  A
C391        H400   1.082       .  S
C392        C395   1.386       .  A
N393        C394   1.359       .  A
N393        H403   1.045       .  S
C394        C395   1.396       .  A
C395        H401   1.082       .  S
N396        C397   1.357       .  A
N396        H404   1.045       .  S
C397        C398   1.400       .  A
C398        H402   1.082       .  S
C405        C410   1.384       .  A
C405        C406   1.413   1_556  A
C405        N411   1.352       .  A
C406        C407   1.412       .  A
C406        H417   1.082       .  S
C407        C416   1.391       .  A
C407        C408   1.384       .  A
C408        C409   1.402       .  A
C408        N414   1.342       .  A
C409        C410   1.401   1_554  A
C409        H418   1.083       .  S
C410        C413   1.377       .  A
N411        C412   1.360       .  A
N411        H421   1.044       .  S
C412        C413   1.395       .  A
C413        H419   1.083       .  S
N414        C415   1.355       .  A
N414        H422   1.045       .  S
C415        C416   1.401       .  A
C416        H420   1.082       .  S
C423        C428   1.384       .  A
C423        C424   1.405       .  A
C423        N429   1.340   1_655  A
C424        C425   1.402       .  A
C424        H435   1.082       .  S
C425        C434   1.384       .  A
C425        C426   1.384       .  A
C426        C427   1.405       .  A
C426        N432   1.340       .  A
C427        C428   1.402       .  A
C427        H436   1.082       .  S
C428        C431   1.383   1_655  A
N429        C430   1.356       .  A
N429        H439   1.045       .  S
C430        C431   1.395       .  A
C431        H437   1.082       .  S
N432        C433   1.356       .  A
N432        H440   1.045       .  S
C433        C434   1.395       .  A
C434        H438   1.082       .  S
C441        C446   1.385       .  A
C441        C442   1.398       .  A
C441        N447   1.339       .  A
C442        C443   1.397       .  A
C442        H453   1.083       .  S
C443        C452   1.370       .  A
C443        C444   1.384       .  A
C444        C445   1.411       .  A
C444        N450   1.352       .  A
C445        C446   1.411       .  A
C445        H454   1.082       .  S
C446        C449   1.388       .  A
N447        C448   1.353       .  A
N447        H457   1.045       .  S
C448        C449   1.399       .  A
C449        H455   1.082       .  S
N450        C451   1.359       .  A
N450        H458   1.045       .  S
C451        C452   1.391       .  A
C452        H456   1.083       .  S
C459        C464   1.385       .  A
C459        C460   1.398       .  A
C459        N465   1.340       .  A
C460        C461   1.397       .  A
C460        H471   1.083       .  S
C461        C470   1.370       .  A
C461        C462   1.384       .  A
C462        C463   1.411       .  A
C462        N468   1.351       .  A
C463        C464   1.410       .  A
C463        H472   1.082       .  S
C464        C467   1.387       .  A
N465        C466   1.353       .  A
N465        H475   1.045       .  S
C466        C467   1.398       .  A
C467        H473   1.082       .  S
N468        C469   1.359       .  A
N468        H476   1.045       .  S
C469        C470   1.391       .  A
C470        H474   1.083       .  S
C477        C482   1.385   1_545  A
C477        C478   1.403   1_545  A
C477        N483   1.347       .  A
C478        C479   1.404       .  A
C478        H489   1.082       .  S
C479        C488   1.374       .  A
C479        C480   1.385       .  A
C480        C481   1.402       .  A
C480        N486   1.347       .  A
C481        C482   1.403       .  A
C481        H490   1.082       .  S
C482        C485   1.373   1_565  A
N483        C484   1.355       .  A
N483        H493   1.044       .  S
C484        C485   1.395       .  A
C485        H491   1.083       .  S
N486        C487   1.355       .  A
N486        H494   1.044       .  S
C487        C488   1.396       .  A
C488        H492   1.083       .  S
C495        C500   1.384       .  A
C495        C496   1.413       .  A
C495        N501   1.352       .  A
C496        C497   1.412       .  A
C496        H507   1.082       .  S
C497        C506   1.390       .  A
C497        C498   1.384       .  A
C498        C499   1.400       .  A
C498        N504   1.341       .  A
C499        C500   1.399       .  A
C499        H508   1.083       .  S
C500        C503   1.374       .  A
N501        C502   1.359       .  A
N501        H511   1.044       .  S
C502        C503   1.393       .  A
C503        H509   1.083       .  S
N504        C505   1.353       .  A
N504        H512   1.045       .  S
C505        C506   1.400       .  A
C506        H510   1.082       .  S
C513        C518   1.384       .  A
C513        C514   1.394       .  A
C513        N519   1.336       .  A
C514        C515   1.393       .  A
C514        H525   1.083       .  S
C515        C524   1.365       .  A
C515        C516   1.383       .  A
C516        C517   1.416       .  A
C516        N522   1.355       .  A
C517        C518   1.416       .  A
C517        H526   1.082       .  S
C518        C521   1.394       .  A
N519        C520   1.352       .  A
N519        H529   1.045       .  S
C520        C521   1.404       .  A
C521        H527   1.082       .  S
N522        C523   1.362       .  A
N522        H530   1.044       .  S
C523        C524   1.390       .  A
C524        H528   1.083       .  S
C531        C536   1.384       .  A
C531        C532   1.400       .  A
C531        N537   1.341       .  A
C532        C533   1.399       .  A
C532        H543   1.083       .  S
C533        C542   1.372       .  A
C533        C534   1.384       .  A
C534        C535   1.411       .  A
C534        N540   1.352       .  A
C535        C536   1.411       .  A
C535        H544   1.082       .  S
C536        C539   1.388       .  A
N537        C538   1.354       .  A
N537        H547   1.045       .  S
C538        C539   1.399       .  A
C539        H545   1.082       .  S
N540        C541   1.359       .  A
N540        H548   1.045       .  S
C541        C542   1.393       .  A
C542        H546   1.083       .  S
C549        C554   1.384       .  A
C549        C550   1.413       .  A
C549        N555   1.353       .  A
C550        C551   1.413       .  A
C550        H561   1.082       .  S
C551        C560   1.391       .  A
C551        C552   1.384       .  A
C552        C553   1.398       .  A
C552        N558   1.338       .  A
C553        C554   1.397       .  A
C553        H562   1.083       .  S
C554        C557   1.371       .  A
N555        C556   1.360       .  A
N555        H565   1.044       .  S
C556        C557   1.393       .  A
C557        H563   1.083       .  S
N558        C559   1.353       .  A
N558        H566   1.045       .  S
C559        C560   1.401       .  A
C560        H564   1.082       .  S
C567        C572   1.385       .  A
C567        C568   1.402       .  A
C567        N573   1.347   1_565  A
C568        C569   1.404       .  A
C568        H579   1.082       .  S
C569        C578   1.373       .  A
C569        C570   1.385       .  A
C570        C571   1.404       .  A
C570        N576   1.349       .  A
C571        C572   1.406       .  A
C571        H580   1.082       .  S
C572        C575   1.376   1_565  A
N573        C574   1.355       .  A
N573        H583   1.044       .  S
C574        C575   1.397       .  A
C575        H581   1.082       .  S
N576        C577   1.356       .  A
N576        H584   1.044       .  S
C577        C578   1.396       .  A
C578        H582   1.083       .  S
C585        C590   1.385       .  A
C585        C586   1.410       .  A
C585        N591   1.350       .  A
C586        C587   1.409       .  A
C586        H597   1.082       .  S
C587        C596   1.386       .  A
C587        C588   1.385       .  A
C588        C589   1.399       .  A
C588        N594   1.341       .  A
C589        C590   1.399       .  A
C589        H598   1.083       .  S
C590        C593   1.372       .  A
N591        C592   1.357       .  A
N591        H601   1.045       .  S
C592        C593   1.392       .  A
C593        H599   1.083       .  S
N594        C595   1.353       .  A
N594        H602   1.045       .  S
C595        C596   1.398       .  A
C596        H600   1.082       .  S
C603        C608   1.384       .  A
C603        C604   1.408       .  A
C603        N609   1.352       .  A
C604        C605   1.409       .  A
C604        H615   1.082       .  S
C605        C614   1.380       .  A
C605        C606   1.384       .  A
C606        C607   1.405       .  A
C606        N612   1.350       .  A
C607        C608   1.406       .  A
C607        H616   1.082       .  S
C608        C611   1.377       .  A
N609        C610   1.358       .  A
N609        H619   1.044       .  S
C610        C611   1.397       .  A
C611        H617   1.082       .  S
N612        C613   1.356       .  A
N612        H620   1.044       .  S
C613        C614   1.399       .  A
C614        H618   1.082       .  S
C621        C626   1.385       .  A
C621        C622   1.400       .  A
C621        N627   1.340       .  A
C622        C623   1.399       .  A
C622        H633   1.083       .  S
C623        C632   1.373       .  A
C623        C624   1.385       .  A
C624        C625   1.410       .  A
C624        N630   1.350       .  A
C625        C626   1.409       .  A
C625        H634   1.082       .  S
C626        C629   1.387       .  A
N627        C628   1.354       .  A
N627        H637   1.045       .  S
C628        C629   1.398       .  A
C629        H635   1.082       .  S
N630        C631   1.357       .  A
N630        H638   1.044       .  S
C631        C632   1.393       .  A
C632        H636   1.083       .  S
C639        C644   1.384       .  A
C639        C640   1.408       .  A
C639        N645   1.344       .  A
C640        C641   1.405       .  A
C640        H651   1.082       .  S
C641        C650   1.386       .  A
C641        C642   1.383       .  A
C642        C643   1.408       .  A
C642        N648   1.344       .  A
C643        C644   1.406       .  A
C643        H652   1.082       .  S
C644        C647   1.387       .  A
N645        C646   1.358       .  A
N645        H655   1.045       .  S
C646        C647   1.397       .  A
C647        H653   1.082       .  S
N648        C649   1.358       .  A
N648        H656   1.045       .  S
C649        C650   1.397       .  A
C650        H654   1.082       .  S
C657        C662   1.385       .  A
C657        C658   1.402       .  A
C657        N663   1.346       .  A
C658        C659   1.403       .  A
C658        H669   1.082       .  S
C659        C668   1.373   1_565  A
C659        C660   1.385       .  A
C660        C661   1.401       .  A
C660        N666   1.345   1_565  A
C661        C662   1.402       .  A
C661        H670   1.082       .  S
C662        C665   1.371       .  A
N663        C664   1.354       .  A
N663        H673   1.045       .  S
C664        C665   1.394       .  A
C665        H671   1.083       .  S
N666        C667   1.354       .  A
N666        H674   1.045       .  S
C667        C668   1.395       .  A
C668        H672   1.083       .  S
C675        C680   1.384       .  A
C675        C676   1.412       .  A
C675        N681   1.352       .  A
C676        C677   1.412       .  A
C676        H687   1.082       .  S
C677        C686   1.390       .  A
C677        C678   1.384       .  A
C678        C679   1.400       .  A
C678        N684   1.340       .  A
C679        C680   1.399       .  A
C679        H688   1.083       .  S
C680        C683   1.373       .  A
N681        C682   1.359       .  A
N681        H691   1.044       .  S
C682        C683   1.392       .  A
C683        H689   1.083       .  S
N684        C685   1.354       .  A
N684        H692   1.045       .  S
C685        C686   1.400       .  A
C686        H690   1.082       .  S
C693        C698   1.384       .  A
C693        C694   1.408       .  A
C693        N699   1.345       .  A
C694        C695   1.406       .  A
C694        H705   1.082       .  S
C695        C704   1.386       .  A
C695        C696   1.384       .  A
C696        C697   1.407       .  A
C696        N702   1.344       .  A
C697        C698   1.404       .  A
C697        H706   1.082       .  S
C698        C701   1.384       .  A
N699        C700   1.358       .  A
N699        H709   1.045       .  S
C700        C701   1.396       .  A
C701        H707   1.082       .  S
N702        C703   1.358       .  A
N702        H710   1.045       .  S
C703        C704   1.397       .  A
C704        H708   1.082       .  S
C711        C716   1.384       .  A
C711        C712   1.398   1_556  A
C711        N717   1.338       .  A
C712        C713   1.396       .  A
C712        H723   1.083       .  S
C713        C722   1.370       .  A
C713        C714   1.383       .  A
C714        C715   1.416       .  A
C714        N720   1.355       .  A
C715        C716   1.416   1_554  A
C715        H724   1.082       .  S
C716        C719   1.394       .  A
N717        C718   1.354       .  A
N717        H727   1.045       .  S
C718        C719   1.404       .  A
C719        H725   1.082       .  S
N720        C721   1.362       .  A
N720        H728   1.044       .  S
C721        C722   1.392       .  A
C722        H726   1.083       .  S
C729        C734   1.385       .  A
C729        C730   1.399       .  A
C729        N735   1.340       .  A
C730        C731   1.398       .  A
C730        H741   1.083       .  S
C731        C740   1.373       .  A
C731        C732   1.384       .  A
C732        C733   1.410       .  A
C732        N738   1.351       .  A
C733        C734   1.410       .  A
C733        H742   1.082       .  S
C734        C737   1.387       .  A
N735        C736   1.353       .  A
N735        H745   1.045       .  S
C736        C737   1.398       .  A
C737        H743   1.082       .  S
N738        C739   1.359       .  A
N738        H746   1.045       .  S
C739        C740   1.392       .  A
C740        H744   1.083       .  S
C747        C752   1.384       .  A
C747        C748   1.406       .  A
C747        N753   1.344       .  A
C748        C749   1.404       .  A
C748        H759   1.082       .  S
C749        C758   1.383       .  A
C749        C750   1.384       .  A
C750        C751   1.409       .  A
C750        N756   1.346       .  A
C751        C752   1.407       .  A
C751        H760   1.082       .  S
C752        C755   1.386       .  A
N753        C754   1.357       .  A
N753        H763   1.045       .  S
C754        C755   1.397       .  A
C755        H761   1.082       .  S
N756        C757   1.359       .  A
N756        H764   1.045       .  S
C757        C758   1.396       .  A
C758        H762   1.082       .  S
C765        C770   1.384       .  A
C765        C766   1.399   1_556  A
C765        N771   1.340       .  A
C766        C767   1.398       .  A
C766        H777   1.083       .  S
C767        C776   1.371       .  A
C767        C768   1.383       .  A
C768        C769   1.414       .  A
C768        N774   1.353       .  A
C769        C770   1.414   1_554  A
C769        H778   1.082       .  S
C770        C773   1.392       .  A
N771        C772   1.355       .  A
N771        H781   1.045       .  S
C772        C773   1.402       .  A
C773        H779   1.082       .  S
N774        C775   1.361       .  A
N774        H782   1.044       .  S
C775        C776   1.393       .  A
C776        H780   1.083       .  S
C783        C788   1.384       .  A
C783        C784   1.404       .  A
C783        N789   1.341   1_565  A
C784        C785   1.402       .  A
C784        H795   1.082       .  S
C785        C794   1.382       .  A
C785        C786   1.384       .  A
C786        C787   1.405       .  A
C786        N792   1.341       .  A
C787        C788   1.403       .  A
C787        H796   1.082       .  S
C788        C791   1.382   1_565  A
N789        C790   1.356       .  A
N789        H799   1.045       .  S
C790        C791   1.395       .  A
C791        H797   1.082       .  S
N792        C793   1.357       .  A
N792        H800   1.045       .  S
C793        C794   1.394       .  A
C794        H798   1.082       .  S
