geometry optimzed in LAMMPS
_audit_creation_date              2020-12-01 
_audit_creation_method            'lammps2cif' 
_symmetry_space_group_name_H-M    'P1' 
_symmetry_Int_Tables_number       1 
_symmetry_cell_setting            triclinic 
loop_ 
_symmetry_equiv_pos_as_xyz 
  x,y,z 
_cell_length_a                    85.9241852 
_cell_length_b                    86.13262890694723 
_cell_length_c                    39.13884344039101 
_cell_angle_alpha                 90.0324072294402 
_cell_angle_beta                  89.90522050948526 
_cell_angle_gamma                 90.07912670698484 
loop_ 
_atom_site_label 
_atom_site_type_symbol 
_atom_site_fract_x 
_atom_site_fract_y 
_atom_site_fract_z 
_atom_site_charge 
In1        In  0.33106943  0.30945046  0.08662377     1.36900
C2          C  0.33123232  0.28594631  0.04316024     0.78100
O3          O  0.34422864  0.29190734  0.11572691    -0.60400
O4          O  0.32299936  0.30008340  0.13741912    -0.51300
C5          C  0.35119129  0.33140985  0.10464013     0.70700
O6          O  0.35398501  0.32174105  0.08109716    -0.46200
C7          C  0.30745284  0.32394038  0.05694783     0.75400
O8          O  0.34148481  0.29653507  0.04184128    -0.58000
O9          O  0.30587744  0.31680002  0.08500824    -0.48100
O10         O  0.32091895  0.28790521  0.06567758    -0.54400
C11         C  0.33428287  0.29065017  0.13925123     0.85600
O12         O  0.33786614  0.33006611  0.11802279    -0.56300
O13         O  0.32123009  0.32439183  0.04580194    -0.59600
In14       In  0.44885219  0.42991357  0.21801529     1.36900
C15         C  0.47430808  0.42681889  0.25495596     0.78100
O16         O  0.46232746  0.41819606  0.17687526    -0.60400
O17         O  0.45829823  0.44250774  0.17244136    -0.51300
C18         C  0.42683380  0.41003041  0.20029689     0.70700
O19         O  0.43676472  0.40703042  0.22311267    -0.46200
C20         C  0.43412187  0.45163022  0.25370043     0.75400
O21         O  0.46370891  0.41662290  0.25530212    -0.58000
O22         O  0.43906085  0.45405233  0.22374362    -0.48100
O23         O  0.47138652  0.43852847  0.23686999    -0.54400
C24         C  0.46493655  0.43055400  0.16059949     0.85600
O25         O  0.42782381  0.42356230  0.18802435    -0.56300
O26         O  0.43632984  0.43802897  0.26449190    -0.59600
In27       In  0.08436473  0.43773407  0.21449010     1.36900
C28         C  0.05894140  0.43714398  0.17631534     0.78100
O29         O  0.06938317  0.42292456  0.24642999    -0.60400
O30         O  0.07412551  0.44578444  0.26463318    -0.51300
C31         C  0.10722940  0.41801052  0.22923132     0.70700
O32         O  0.09750690  0.41555424  0.20559107    -0.46200
C33         C  0.09753082  0.46167390  0.18329550     0.75400
O34         O  0.06970452  0.42719231  0.17291721    -0.58000
O35         O  0.09283602  0.46242202  0.21393771    -0.48100
O36         O  0.06173057  0.44765147  0.19785793    -0.54400
C37         C  0.06639552  0.43331892  0.26812300     0.85600
O38         O  0.10563042  0.43098059  0.24398021    -0.56300
O39         O  0.09660822  0.44835692  0.16995811    -0.59600
In40       In  0.20136052  0.31592556  0.34583568     1.36900
C41         C  0.19827727  0.29007304  0.38205108     0.78100
O42         O  0.18945545  0.30211848  0.30594792    -0.60400
O43         O  0.21361270  0.30663599  0.29897894    -0.51300
C44         C  0.18248281  0.33889284  0.32621470     0.70700
O45         O  0.17845130  0.32863704  0.34762178    -0.46200
C46         C  0.22282095  0.32906616  0.38561276     0.75400
O47         O  0.18845769  0.30101463  0.38406524    -0.58000
O48         O  0.22562804  0.32505768  0.35508596    -0.48100
O49         O  0.20956857  0.29270218  0.36234024    -0.54400
C50         C  0.20148521  0.29981985  0.28814751     0.85600
O51         O  0.19640705  0.33764640  0.31611808    -0.56300
O52         O  0.20883814  0.32723196  0.39461706    -0.59600
In53       In  0.43243808  0.56306950  0.44320332     1.36900
C54         C  0.45442074  0.56816175  0.39770051     0.78100
O55         O  0.44816766  0.57851398  0.97310498    -0.60400
O56         O  0.44473299  0.55531444  0.99092502    -0.51300
C57         C  0.40843653  0.57877917  0.96663150     0.70700
O58         O  0.41613624  0.58322100  0.44092386    -0.46200
C59         C  0.42069334  0.53787282  0.41493066     0.75400
O60         O  0.44202553  0.57610558  0.39800411    -0.58000
O61         O  0.42815108  0.53750922  0.44272332    -0.48100
O62         O  0.45505678  0.55741388  0.41945502    -0.54400
C63         C  0.45196228  0.56805632  0.99404455     0.85600
O64         O  0.41273248  0.56596570  0.97899598    -0.56300
O65         O  0.41853089  0.55128457  0.40297132    -0.59600
In66       In  0.32163481  0.67305490  0.11988732     1.36900
C67         C  0.32508390  0.69137956  0.17285838     0.78100
O68         O  0.33824556  0.69031051  0.09822653    -0.60400
O69         O  0.31661917  0.68700980  0.07287937    -0.51300
C70         C  0.33697110  0.64913506  0.09512486     0.70700
O71         O  0.34080643  0.65575566  0.12268518    -0.46200
C72         C  0.29551390  0.66135721  0.14418815     0.75400
O73         O  0.33499110  0.68098216  0.16577834    -0.58000
O74         O  0.29561899  0.67060140  0.11900248    -0.48100
O75         O  0.31346456  0.69201893  0.15331023    -0.54400
C76         C  0.32939105  0.69433717  0.07421213     0.85600
O77         O  0.32477639  0.65435540  0.08134449    -0.56300
O78         O  0.30882023  0.65714265  0.15406920    -0.59600
In79       In  0.07550742  0.56617209  0.47886532     1.36900
C80         C  0.05231136  0.56949604  0.02278175     0.78100
O81         O  0.05979091  0.57824943  0.44302269    -0.60400
O82         O  0.06275565  0.55398563  0.43605605    -0.51300
C83         C  0.09739669  0.58496455  0.45592287     0.70700
O84         O  0.08934319  0.58789595  0.48218878    -0.46200
C85         C  0.09185796  0.54522228  0.51319837     0.75400
O86         O  0.06134009  0.58086503  0.51460630    -0.58000
O87         O  0.08581475  0.54235375  0.48437031    -0.48100
O88         O  0.05587372  0.55682766  0.50922330    -0.54400
C89         C  0.05579423  0.56624982  0.42683050     0.85600
O90         O  0.09441714  0.57209872  0.44179017    -0.56300
O91         O  0.09031568  0.55910694  0.02358949    -0.59600
In92       In  0.18595776  0.68989194  0.33526400     1.36900
C93         C  0.18672957  0.71360805  0.29283032     0.78100
O94         O  0.17147840  0.70629963  0.36458773    -0.60400
O95         O  0.19437066  0.70162842  0.38320391    -0.51300
C96         C  0.16773372  0.66721936  0.35652630     0.70700
O97         O  0.16409950  0.67595535  0.33175294    -0.46200
C98         C  0.20743291  0.67358945  0.30306190     0.75400
O99         O  0.17550392  0.70398958  0.29271555    -0.58000
O100        O  0.20995727  0.67978127  0.33197413    -0.48100
O101        O  0.19759808  0.71040485  0.31329176    -0.54400
C102        C  0.18199565  0.70960311  0.38587466     0.85600
O103        O  0.18076886  0.67021646  0.36997548    -0.56300
O104        O  0.19377414  0.67533047  0.29185956    -0.59600
In105      In  0.56740451  0.57107798  0.19226485     1.36900
C106        C  0.54599339  0.57315702  0.14464299     0.78100
O107        O  0.58282936  0.56307763  0.15003718    -0.60400
O108        O  0.57548158  0.54663542  0.18732757    -0.51300
C109        C  0.58979958  0.58762676  0.22088425     0.70700
O110        O  0.58202461  0.59258408  0.19568106    -0.46200
C111        C  0.54665213  0.57223350  0.24168916     0.75400
O112        O  0.55537762  0.58425442  0.15036132    -0.58000
O113        O  0.55491992  0.56032900  0.23624448    -0.48100
O114        O  0.54785901  0.56131604  0.16309474    -0.54400
C115        C  0.58256159  0.54904045  0.15944279     0.85600
O116        O  0.58625782  0.57406843  0.23036332    -0.56300
O117        O  0.54971811  0.58369628  0.22274739    -0.59600
In118      In  0.68389602  0.67956581  0.36346246     1.36900
C119        C  0.67986059  0.70220814  0.40772239     0.78100
O120        O  0.69257004  0.66697920  0.40941986    -0.60400
O121        O  0.70876990  0.67227997  0.36983786    -0.51300
C122        C  0.66700031  0.65556183  0.34286605     0.70700
O123        O  0.66258977  0.66471689  0.36619112    -0.46200
C124        C  0.68290041  0.69840702  0.30972124     0.75400
O125        O  0.66888919  0.69295177  0.40037598    -0.58000
O126        O  0.69466439  0.69007895  0.31619370    -0.48100
O127        O  0.69253262  0.69975535  0.39239513    -0.54400
C128        C  0.70655579  0.66683640  0.39950568     0.85600
O129        O  0.68034351  0.65846751  0.33098453    -0.56300
O130        O  0.67161715  0.69637359  0.32980070    -0.59600
In131      In  0.70478440  0.31972508  0.35400882     1.36900
C132        C  0.69861421  0.29494656  0.31720744     0.78100
O133        O  0.71487651  0.32745097  0.30495397    -0.60400
O134        O  0.72988629  0.32747459  0.34810987    -0.51300
C135        C  0.68660606  0.34342792  0.36831890     0.70700
O136        O  0.68270296  0.33263726  0.34826596    -0.46200
C137        C  0.70226663  0.30457965  0.41231640     0.75400
O138        O  0.69148713  0.30761111  0.31275803    -0.58000
O139        O  0.71536661  0.30870758  0.40045320    -0.48100
O140        O  0.70880921  0.29514154  0.34027415    -0.54400
C141        C  0.72849577  0.32913556  0.31611685     0.85600
O142        O  0.70043624  0.34263312  0.37913011    -0.56300
O143        O  0.69067433  0.30909361  0.39537604    -0.59600
In144      In  0.58172008  0.43633077  0.46691583     1.36900
C145        C  0.55558732  0.43241266  0.00192208     0.78100
O146        O  0.59254397  0.44738242  0.01316792    -0.60400
O147        O  0.58903015  0.46120183  0.46879264    -0.51300
C148        C  0.60581525  0.41868582  0.45219720     0.70700
O149        O  0.59718361  0.41603880  0.47773812    -0.46200
C150        C  0.56620206  0.43385434  0.40943983     0.75400
O151        O  0.56651102  0.42256040  0.00293392    -0.58000
O152        O  0.57276516  0.44637516  0.41835926    -0.48100
O153        O  0.55856844  0.44429553  0.48423259    -0.54400
C154        C  0.59329865  0.46060357  0.49962413     0.85600
O155        O  0.60244031  0.43072575  0.43547263    -0.56300
O156        O  0.56871878  0.42240792  0.42876026    -0.59600
In157      In  0.82381891  0.68115660  0.08421934     1.36900
C158        C  0.82726357  0.70682574  0.04773269     0.78100
O159        O  0.81303885  0.67218707  0.03672196    -0.60400
O160        O  0.79903781  0.67269950  0.08169059    -0.51300
C161        C  0.84089705  0.65629063  0.09765430     0.70700
O162        O  0.84490883  0.66621721  0.07547698    -0.46200
C163        C  0.82778119  0.69591620  0.14252163     0.75400
O164        O  0.83679325  0.69564124  0.04575225    -0.58000
O165        O  0.81444780  0.69150828  0.13270676    -0.48100
O166        O  0.81619572  0.70466383  0.06838694    -0.54400
C167        C  0.79980839  0.67004735  0.04992337     0.85600
O168        O  0.82778383  0.65879624  0.11118566    -0.56300
O169        O  0.83888879  0.69214176  0.12315856    -0.59600
In170      In  0.94006798  0.56455625  0.22604952     1.36900
C171        C  0.96413932  0.56840429  0.26698489     0.78100
O172        O  0.92736729  0.55459982  0.27052571    -0.60400
O173        O  0.93467764  0.53913520  0.23117096    -0.51300
C174        C  0.91618508  0.58135924  0.20515775     0.70700
O175        O  0.92570113  0.58617175  0.22743755    -0.46200
C176        C  0.95758320  0.56868079  0.17141206     0.75400
O177        O  0.95226994  0.57709607  0.26898675    -0.58000
O178        O  0.95072290  0.55588409  0.17714414    -0.48100
O179        O  0.96326687  0.55777058  0.24496053    -0.54400
C180        C  0.92859508  0.54072849  0.26045915     0.85600
O181        O  0.91842508  0.56756834  0.19532666    -0.56300
O182        O  0.95444698  0.57930939  0.19244156    -0.59600
In183      In  0.83868173  0.31094013  0.11127924     1.36900
C184        C  0.84048712  0.28589376  0.14966954     0.78100
O185        O  0.83121327  0.32202362  0.15977737    -0.60400
O186        O  0.81477756  0.32058077  0.11912217    -0.51300
C187        C  0.85618523  0.33447112  0.09096871     0.70700
O188        O  0.86038498  0.32525156  0.11439581    -0.46200
C189        C  0.83891964  0.29361171  0.05602749     0.75400
O190        O  0.85221490  0.29465942  0.14532522    -0.58000
O191        O  0.82691888  0.30106155  0.06529373    -0.48100
O192        O  0.82825991  0.29012695  0.13460219    -0.54400
C193        C  0.81734668  0.32407880  0.15004568     0.85600
O194        O  0.84273053  0.33191520  0.07929498    -0.56300
O195        O  0.85086659  0.29609763  0.07386390    -0.59600
In196      In  0.94913752  0.43451953  0.46581226     1.36900
C197        C  0.97294298  0.43231245  0.42282550     0.78100
O198        O  0.93469376  0.44351489  0.42282916    -0.60400
O199        O  0.94111033  0.45919442  0.46228298    -0.51300
C200        C  0.92648326  0.41522302  0.98449413     0.70700
O201        O  0.93565144  0.41224682  0.46085269    -0.46200
C202        C  0.96611038  0.43424040  0.02143503     0.75400
O203        O  0.96374651  0.42105289  0.42790397    -0.58000
O204        O  0.95803929  0.44587562  0.01297249    -0.48100
O205        O  0.96973072  0.44439359  0.43947577    -0.54400
C206        C  0.93470001  0.45735043  0.43354444     0.85600
O207        O  0.92849795  0.42844509  0.99762347    -0.56300
O208        O  0.96486265  0.42271037  0.00181252    -0.59600
In209      In  0.32448913  0.17447496  0.33453391     1.36900
C210        C  0.32843849  0.19883132  0.29485060     0.78100
O211        O  0.31860088  0.16301932  0.28538525    -0.60400
O212        O  0.30080642  0.16443829  0.32321244    -0.51300
C213        C  0.34161563  0.15116889  0.35747846     0.70700
O214        O  0.34606444  0.16003577  0.33357698    -0.46200
C215        C  0.32446103  0.19283957  0.38889791     0.75400
O216        O  0.33942477  0.18937015  0.30064302    -0.58000
O217        O  0.31212545  0.18627488  0.37840945    -0.48100
O218        O  0.31568922  0.19553451  0.30912028    -0.54400
C219        C  0.30448246  0.16080330  0.29282334     0.85600
O220        O  0.32804970  0.15394204  0.36840861    -0.56300
O221        O  0.33659448  0.18903793  0.37277818    -0.59600
In222      In  0.44082116  0.05971105  0.49156068     1.36900
C223        C  0.46490979  0.06588888  0.03229224     0.78100
O224        O  0.42820625  0.04936240  0.03655834    -0.60400
O225        O  0.43545552  0.03409160  0.49492855    -0.51300
C226        C  0.41727852  0.07723286  0.46988541     0.70700
O227        O  0.42583454  0.08102663  0.49475530    -0.46200
C228        C  0.45875158  0.06199659  0.43655553     0.75400
O229        O  0.45241640  0.07356400  0.03503477    -0.58000
O230        O  0.45232933  0.04937157  0.44533767    -0.48100
O231        O  0.46446151  0.05481154  0.51097740    -0.54400
C232        C  0.42934449  0.03503029  0.52421819     0.85600
O233        O  0.42022549  0.06396442  0.45774963    -0.56300
O234        O  0.45499680  0.07352226  0.45468741    -0.59600
In235      In  0.19572793  0.18109881  0.09574844     1.36900
C236        C  0.19575874  0.20673291  0.13356861     0.78100
O237        O  0.20342926  0.17024199  0.14399987    -0.60400
O238        O  0.21886720  0.16892491  0.10146659    -0.51300
C239        C  0.17515165  0.15871113  0.08284844     0.70700
O240        O  0.17233042  0.16989704  0.10287414    -0.46200
C241        C  0.19645164  0.19744587  0.03855262     0.75400
O242        O  0.18427578  0.19748119  0.13327177    -0.58000
O243        O  0.20823087  0.19004503  0.04907035    -0.48100
O244        O  0.20700996  0.20259346  0.11501359    -0.54400
C245        C  0.21670118  0.16648735  0.13301813     0.85600
O246        O  0.18847642  0.15920409  0.06919780    -0.56300
O247        O  0.18425338  0.19536637  0.05592586    -0.59600
In248      In  0.07047262  0.06000664  0.49875743     1.36900
C249        C  0.04438947  0.06010881  0.46184925     0.78100
O250        O  0.08306840  0.05186071  0.45228730    -0.60400
O251        O  0.07818170  0.03544618  0.49159659    -0.51300
C252        C  0.09302512  0.08000016  0.01511309     0.70700
O253        O  0.08195450  0.08332152  0.49490416    -0.46200
C254        C  0.05625253  0.06042164  0.05789913     0.75400
O255        O  0.05452492  0.07075008  0.45894011    -0.58000
O256        O  0.06424015  0.04886267  0.04831794    -0.48100
O257        O  0.04768939  0.04997516  0.48382011    -0.54400
C258        C  0.08304216  0.03782463  0.46155564     0.85600
O259        O  0.09275579  0.06612205  0.02555663    -0.56300
O260        O  0.05641417  0.07192781  0.03796404    -0.59600
In261      In  0.44682089  0.92551802  0.22146751     1.36900
C262        C  0.47153816  0.92480136  0.18126848     0.78100
O263        O  0.43282477  0.93453195  0.17790164    -0.60400
O264        O  0.43777404  0.95006645  0.21848407    -0.51300
C265        C  0.42569343  0.90459298  0.23901335     0.70700
O266        O  0.43545000  0.90231948  0.21536498    -0.46200
C267        C  0.46443654  0.92401035  0.27640581     0.75400
O268        O  0.46084359  0.91473498  0.17878927    -0.58000
O269        O  0.45549823  0.93545549  0.27111725    -0.48100
O270        O  0.46907463  0.93521899  0.20320970    -0.54400
C271        C  0.43189475  0.94821586  0.18914622     0.85600
O272        O  0.42647875  0.91787803  0.25260135    -0.56300
O273        O  0.46323455  0.91311335  0.25507025    -0.59600
In274      In  0.33288294  0.80661807  0.37184331     1.36900
C275        C  0.33656038  0.78729060  0.42352249     0.78100
O276        O  0.32521680  0.82345676  0.41155015    -0.60400
O277        O  0.30861004  0.81617798  0.37446441    -0.51300
C278        C  0.35121717  0.82711029  0.34155785     0.70700
O279        O  0.35506947  0.82008209  0.36857478    -0.46200
C280        C  0.33249138  0.78415228  0.32578032     0.75400
O281        O  0.34764677  0.79556642  0.41240377    -0.58000
O282        O  0.32098162  0.79309738  0.33008807    -0.48100
O283        O  0.32368848  0.78941036  0.40878729    -0.54400
C284        C  0.31128448  0.82384876  0.40142048     0.85600
O285        O  0.33778656  0.82386086  0.33077199    -0.56300
O286        O  0.34411287  0.78717661  0.34416713    -0.59600
In287      In  0.07588918  0.94015718  0.22773460     1.36900
C288        C  0.04999771  0.93548168  0.26228207     0.78100
O289        O  0.08666074  0.94736689  0.27694315    -0.60400
O290        O  0.08248643  0.96491256  0.23987758    -0.51300
C291        C  0.09991686  0.92258870  0.21062793     0.70700
O292        O  0.08935465  0.91804849  0.23082439    -0.46200
C293        C  0.06069926  0.93942968  0.16916401     0.75400
O294        O  0.06143850  0.92630807  0.26486285    -0.58000
O295        O  0.06656357  0.95193289  0.18054322    -0.48100
O296        O  0.05202824  0.94677817  0.24242387    -0.54400
C297        C  0.08679562  0.96164527  0.26995015     0.85600
O298        O  0.09838921  0.93641485  0.20023433    -0.56300
O299        O  0.06377588  0.92750931  0.18656471    -0.59600
In300      In  0.19461343  0.82532396  0.08260852     1.36900
C301        C  0.18927322  0.80288969  0.03774723     0.78100
O302        O  0.20459042  0.83701919  0.03687721    -0.60400
O303        O  0.21976422  0.83278047  0.07882788    -0.51300
C304        C  0.17757161  0.84882994  0.10578451     0.70700
O305        O  0.17323611  0.84013000  0.08159500    -0.46200
C306        C  0.19267369  0.80610924  0.13528002     0.75400
O307        O  0.17953739  0.81368091  0.04283121    -0.58000
O308        O  0.20526134  0.81290656  0.12749885    -0.48100
O309        O  0.20148175  0.80382304  0.05544522    -0.54400
C310        C  0.21832592  0.83723798  0.04820804     0.85600
O311        O  0.19110767  0.84604136  0.11660574    -0.56300
O312        O  0.18122871  0.80977191  0.11696493    -0.59600
In313      In  0.69232039  0.18754666  0.10260291     1.36900
C314        C  0.69074669  0.21367577  0.06726181     0.78100
O315        O  0.67986402  0.20244345  0.13977444    -0.60400
O316        O  0.70330032  0.19606453  0.15062410    -0.51300
C317        C  0.67390522  0.16461352  0.12295816     0.70700
O318        O  0.67011506  0.17387720  0.09925833    -0.46200
C319        C  0.71466749  0.17449108  0.06574686     0.75400
O320        O  0.68007687  0.20349332  0.06529196    -0.58000
O321        O  0.71684998  0.17945702  0.09576829    -0.48100
O322        O  0.70210148  0.20990338  0.08572607    -0.54400
C323        C  0.69152571  0.20404260  0.15906786     0.85600
O324        O  0.68736437  0.16682978  0.13493325    -0.56300
O325        O  0.70070219  0.17508698  0.05576821    -0.59600
In326      In  0.57542576  0.06761028  0.23750319     1.36900
C327        C  0.55100435  0.06874491  0.27880035     0.78100
O328        O  0.56058765  0.08076469  0.20139645    -0.60400
O329        O  0.56705754  0.05771079  0.18790261    -0.51300
C330        C  0.59750243  0.08764679  0.22112341     0.70700
O331        O  0.58643231  0.09107497  0.24102692    -0.46200
C332        C  0.58936842  0.04423337  0.26899419     0.75400
O333        O  0.56266833  0.07754811  0.28277429    -0.58000
O334        O  0.58329556  0.04279534  0.23975064    -0.48100
O335        O  0.55203867  0.05949074  0.25399182    -0.54400
C336        C  0.55911432  0.06964035  0.18067164     0.85600
O337        O  0.59757353  0.07373363  0.21096359    -0.56300
O338        O  0.58911117  0.05785861  0.28081744    -0.59600
In339      In  0.69164557  0.81429610  0.10906618     1.36900
C340        C  0.68758911  0.79017513  0.14992112     0.78100
O341        O  0.67474649  0.80081782  0.07846945    -0.60400
O342        O  0.69824592  0.80183357  0.06096195    -0.51300
C343        C  0.67678171  0.83983286  0.08967549     0.70700
O344        O  0.67250182  0.83181122  0.11513790    -0.46200
C345        C  0.71700254  0.82468062  0.13996528     0.75400
O346        O  0.67886674  0.80204742  0.15174579    -0.58000
O347        O  0.71720454  0.82000508  0.10927447    -0.48100
O348        O  0.69845505  0.79114858  0.12832252    -0.54400
C349        C  0.68474880  0.79606270  0.05729072     0.85600
O350        O  0.68897551  0.83497453  0.07514547    -0.56300
O351        O  0.70366791  0.82489593  0.15356557    -0.59600
In352      In  0.58033766  0.93685959  0.47123888     1.36900
C353        C  0.55504485  0.93328410  0.43412368     0.78100
O354        O  0.56679132  0.92374370  0.00866331    -0.60400
O355        O  0.57054397  0.94770699  0.01943810    -0.51300
C356        C  0.60400938  0.91907711  0.98786543     0.70700
O357        O  0.59476855  0.91552064  0.46322574    -0.46200
C358        C  0.59333111  0.95966727  0.43586243     0.75400
O359        O  0.56484668  0.92248729  0.43797782    -0.58000
O360        O  0.58824932  0.96152027  0.46595695    -0.48100
O361        O  0.55860149  0.94600595  0.44795195    -0.54400
C362        C  0.56411926  0.93505999  0.02814462     0.85600
O363        O  0.60135914  0.93190416  0.00244169    -0.56300
O364        O  0.59265922  0.94585753  0.42506421    -0.59600
In365      In  0.94248657  0.93504792  0.47578044     1.36900
C366        C  0.96869697  0.93392950  0.01251630     0.78100
O367        O  0.95579569  0.92395117  0.43440705    -0.60400
O368        O  0.95086571  0.94809047  0.42967210    -0.51300
C369        C  0.92100864  0.91483714  0.45685903     0.70700
O370        O  0.93230800  0.91115513  0.47588962    -0.46200
C371        C  0.92794859  0.95530154  0.51476412     0.75400
O372        O  0.95788101  0.92355394  0.51484136    -0.58000
O373        O  0.93184774  0.95843679  0.48435040    -0.48100
O374        O  0.96527512  0.94468434  0.49179480    -0.54400
C375        C  0.95786845  0.93632778  0.41779838     0.85600
O376        O  0.92036033  0.92907396  0.44927539    -0.56300
O377        O  0.93088031  0.94134444  0.02403685    -0.59600
In378      In  0.83369232  0.81088514  0.32879644     1.36900
C379        C  0.84082094  0.78442454  0.29875423     0.78100
O380        O  0.84303234  0.80027709  0.37618950    -0.60400
O381        O  0.81842663  0.80188265  0.37089567    -0.51300
C382        C  0.85116745  0.83480769  0.34742840     0.70700
O383        O  0.85633976  0.82410635  0.32845926    -0.46200
C384        C  0.81213231  0.82110291  0.28590517     0.75400
O385        O  0.84938775  0.79630403  0.29529555    -0.58000
O386        O  0.81009906  0.82091538  0.31783245    -0.48100
O387        O  0.82886257  0.78639252  0.31681794    -0.54400
C388        C  0.82981335  0.79710878  0.38839308     0.85600
O389        O  0.83692640  0.83357704  0.35458165    -0.56300
O390        O  0.82553758  0.81709634  0.27627606    -0.59600
In391      In  0.93790659  0.05228198  0.24564445     1.36900
C392        C  0.96382606  0.05724136  0.21096350     0.78100
O393        O  0.94952851  0.06340756  0.29020067    -0.60400
O394        O  0.94703373  0.03885120  0.29091734    -0.51300
C395        C  0.91434770  0.07072924  0.26136607     0.70700
O396        O  0.92555275  0.07496589  0.24259567    -0.46200
C397        C  0.92603975  0.03088200  0.20449622     0.75400
O398        O  0.95269118  0.06681791  0.21009819    -0.58000
O399        O  0.92969385  0.02798173  0.23510515    -0.48100
O400        O  0.96133094  0.04532791  0.22868345    -0.54400
C401        C  0.95250816  0.05083129  0.30528155     0.85600
O402        O  0.91506188  0.05677274  0.27116128    -0.56300
O403        O  0.92732093  0.04494873  0.19610232    -0.59600
In404      In  0.82401533  0.17801651  0.35939072     1.36900
C405        C  0.82899956  0.20201921  0.39939270     0.78100
O406        O  0.84055700  0.19088297  0.32670294    -0.60400
O407        O  0.81728531  0.18864675  0.30879187    -0.51300
C408        C  0.83981126  0.15285065  0.34300004     0.70700
O409        O  0.84415704  0.16216701  0.36609765    -0.46200
C410        C  0.79929611  0.16769492  0.39336922     0.75400
O411        O  0.83695118  0.18971164  0.40204034    -0.58000
O412        O  0.79819183  0.17377147  0.36399157    -0.48100
O413        O  0.81836333  0.20166099  0.37726960    -0.54400
C414        C  0.83073060  0.19443637  0.30416602     0.85600
O415        O  0.82697252  0.15625019  0.32920156    -0.56300
O416        O  0.81308879  0.16600591  0.40366358    -0.59600
C417        C  0.87475272  0.12662426  0.33451427    -0.01500
C418        C  0.86966269  0.11560339  0.31039042     0.07100
C419        C  0.85441156  0.11631578  0.29798722    -0.07500
C420        C  0.84433416  0.12819286  0.30835610     0.04500
C421        C  0.84944601  0.13940722  0.33238297    -0.14700
C422        C  0.86462158  0.13826958  0.34552813    -0.08100
C423        C  0.88044286  0.10391751  0.29605971     0.05400
C424        C  0.87876400  0.08829234  0.30523408    -0.09200
C425        C  0.88925936  0.07709091  0.29324929     0.00400
C426        C  0.90184858  0.08160417  0.27199168     0.00300
C427        C  0.90301705  0.09722331  0.26180734    -0.12700
C428        C  0.89239145  0.10830494  0.27340514     0.00800
C429        C  0.88670311  0.06113979  0.30311818     0.40100
C430        C  0.89383113  0.12412359  0.26155136     0.36700
C431        C  0.89045948  0.12646676  0.34761322     0.36400
C432        C  0.82907764  0.12873683  0.29301015     0.37200
N433        N  0.88457587  0.04834441  0.31086541    -0.43600
N434        N  0.89483216  0.13681532  0.25210817    -0.44100
N435        N  0.81691635  0.12915716  0.28037735    -0.41400
N436        N  0.90307663  0.12644843  0.35791171    -0.42900
H437        H  0.86880853  0.14678860  0.36375441     0.13300
H438        H  0.85057134  0.10788192  0.27921337     0.09800
H439        H  0.86933259  0.08489005  0.32210493     0.10900
H440        H  0.91238355  0.10089158  0.24503153     0.16700
C441        C  0.91254363  0.97153254  0.09704996    -0.01500
C442        C  0.91688077  0.98729854  0.09447668     0.07100
C443        C  0.92291789  0.99281971  0.06337136    -0.07500
C444        C  0.92536177  0.98282001  0.03569594     0.04500
C445        C  0.92225116  0.96679125  0.03933652    -0.14700
C446        C  0.91533128  0.96145472  0.06970019    -0.08100
C447        C  0.91696052  0.99779511  0.12472052     0.05400
C448        C  0.92567836  0.99340607  0.15346185    -0.09200
C449        C  0.92818617  0.00374741  0.18049393     0.00400
C450        C  0.92165333  0.01878303  0.17939192     0.00300
C451        C  0.91247738  0.02299350  0.15118631    -0.12700
C452        C  0.91018733  0.01271554  0.12387779     0.00800
C453        C  0.93892925  0.99919011  0.20699400     0.40100
C454        C  0.90145139  0.01799443  0.09461381     0.36700
C455        C  0.90562112  0.96528169  0.12775303     0.36400
C456        C  0.93196581  0.98925730  0.00483445     0.37200
N457        N  0.94771752  0.99562549  0.22793837    -0.43600
N458        N  0.89470202  0.02222981  0.07081973    -0.44100
N459        N  0.93717650  0.99449841  0.98010370    -0.41400
N460        N  0.90010167  0.96015601  0.15227285    -0.42900
H461        H  0.91263791  0.94922927  0.07263032     0.13300
H462        H  0.92645681  0.00484997  0.06118525     0.09800
H463        H  0.93138088  0.98221123  0.15381163     0.10900
H464        H  0.90758325  0.03455944  0.14984913     0.16700
C465        C  0.90562640  0.87622299  0.42576469    -0.01500
C466        C  0.89186171  0.88060408  0.40872743     0.07100
C467        C  0.88707000  0.89614436  0.40989954    -0.07500
C468        C  0.89594654  0.90740667  0.42669968     0.04500
C469        C  0.91009862  0.90318170  0.44259241    -0.14700
C470        C  0.91459753  0.88749378  0.44240202    -0.08100
C471        C  0.88160743  0.86911042  0.39164544     0.05400
C472        C  0.86634815  0.86749694  0.40373877    -0.09200
C473        C  0.85604825  0.85695625  0.38877457     0.00400
C474        C  0.86113179  0.84733319  0.36158866     0.00300
C475        C  0.87635509  0.84922374  0.34895696    -0.12700
C476        C  0.88647538  0.86022564  0.36327827     0.00800
C477        C  0.84039466  0.85637823  0.40221698     0.40100
C478        C  0.90151301  0.86260875  0.34759576     0.36700
C479        C  0.91066557  0.86024601  0.42701558     0.36400
C480        C  0.89000356  0.92307347  0.42766849     0.37200
N481        N  0.82782733  0.85607968  0.41288264    -0.43600
N482        N  0.91350875  0.86457006  0.33480588    -0.44100
N483        N  0.88507909  0.93556897  0.42841002    -0.41400
N484        N  0.91477325  0.84746295  0.42795525    -0.42900
H485        H  0.92537607  0.88402170  0.45470222     0.13300
H486        H  0.87625368  0.89949514  0.39753933     0.09800
H487        H  0.86247496  0.87452284  0.42503893     0.10900
H488        H  0.88032465  0.84221432  0.32773132     0.16700
C489        C  0.77605146  0.83964236  0.24892719    -0.01500
C490        C  0.77312157  0.83006024  0.22033831     0.07100
C491        C  0.78399014  0.81856687  0.21160423    -0.07500
C492        C  0.79719202  0.81601155  0.23171962     0.04500
C493        C  0.79951232  0.82485195  0.26171037    -0.14700
C494        C  0.78897105  0.83673162  0.26979685    -0.08100
C495        C  0.75841036  0.83095489  0.20036897     0.05400
C496        C  0.75915656  0.83300165  0.16478132    -0.09200
C497        C  0.74577763  0.83164546  0.14444556     0.00400
C498        C  0.73123550  0.82841876  0.15983966     0.00300
C499        C  0.73043276  0.82712604  0.19561104    -0.12700
C500        C  0.74383196  0.82801437  0.21576021     0.00800
C501        C  0.74741371  0.83333658  0.10793156     0.40100
C502        C  0.74243890  0.82447615  0.25171711     0.36700
C503        C  0.76612641  0.85264559  0.25703192     0.36400
C504        C  0.80765956  0.80364199  0.22202306     0.37200
N505        N  0.74877414  0.83465175  0.07865268    -0.43600
N506        N  0.74129959  0.82155451  0.28047170    -0.44100
N507        N  0.81607261  0.79377047  0.21420331    -0.41400
N508        N  0.75824271  0.86313095  0.26348276    -0.42900
H509        H  0.79085578  0.84375584  0.29238240     0.13300
H510        H  0.78188432  0.81121975  0.18960647     0.09800
H511        H  0.77031603  0.83515340  0.15277099     0.10900
H512        H  0.71944656  0.82441455  0.20780681     0.16700
C513        C  0.63677161  0.90325199  0.04206473    -0.01500
C514        C  0.63823613  0.88789062  0.03010004     0.07100
C515        C  0.62889509  0.88296228  0.00273366    -0.07500
C516        C  0.61803870  0.89297466  0.98763316     0.04500
C517        C  0.61631900  0.90831662  0.00013287    -0.14700
C518        C  0.62595287  0.91327165  0.02705695    -0.08100
C519        C  0.64913133  0.87663120  0.04618888     0.05400
C520        C  0.64692751  0.87236192  0.08048361    -0.09200
C521        C  0.65621111  0.86092278  0.09575413     0.00400
C522        C  0.66787313  0.85335262  0.07642190     0.00300
C523        C  0.67051862  0.85820363  0.04256877    -0.12700
C524        C  0.66128095  0.86967840  0.02741255     0.00800
C525        C  0.65361821  0.85733992  0.13133590     0.40100
C526        C  0.66421804  0.87331842  0.49155294     0.36700
C527        C  0.64626089  0.90906205  0.06965988     0.36400
C528        C  0.60867274  0.88698018  0.95998639     0.37200
N529        N  0.65164014  0.85449037  0.15990957    -0.43600
N530        N  0.66654660  0.87664858  0.46335999    -0.44100
N531        N  0.60120476  0.88212822  0.93781785    -0.41400
N532        N  0.65379334  0.91379202  0.09183473    -0.42900
H533        H  0.62488877  0.92498292  0.03692195     0.13300
H534        H  0.62991828  0.87113792  0.99352205     0.09800
H535        H  0.63770739  0.87779786  0.09521297     0.10900
H536        H  0.67955056  0.85269696  0.02743780     0.16700
C537        C  0.60988080  0.02256213  0.33964518    -0.01500
C538        C  0.60367046  0.00748004  0.33614558     0.07100
C539        C  0.59414643  0.00412009  0.30799615    -0.07500
C540        C  0.58988575  0.01571594  0.28479608     0.04500
C541        C  0.59552261  0.03102213  0.28912895    -0.14700
C542        C  0.60586190  0.03412750  0.31611040    -0.08100
C543        C  0.60441645  0.99587952  0.36420529     0.05400
C544        C  0.59731357  0.99963434  0.39542643    -0.09200
C545        C  0.59448249  0.98825483  0.42018688     0.00400
C546        C  0.59870093  0.97264462  0.41376521     0.00300
C547        C  0.60676019  0.96911981  0.38338659    -0.12700
C548        C  0.60969963  0.98058782  0.35878233     0.00800
C549        C  0.58619472  0.99286804  0.45065183     0.40100
C550        C  0.61791310  0.97635422  0.32794710     0.36700
C551        C  0.61987497  0.02659976  0.36792077     0.36400
C552        C  0.57838157  0.01189580  0.25926941     0.37200
N553        N  0.57952981  0.99665458  0.47497945    -0.43600
N554        N  0.62458467  0.97294219  0.30335910    -0.44100
N555        N  0.56900600  0.00885795  0.23913968    -0.41400
N556        N  0.62783132  0.02990931  0.39062342    -0.42900
H557        H  0.61030433  0.04581161  0.31972412     0.13300
H558        H  0.58903118  0.99264011  0.30561719     0.09800
H559        H  0.59309915  0.01131548  0.39962274     0.10900
H560        H  0.61031522  0.95729896  0.37828792     0.16700
C561        C  0.77701678  0.15466082  0.47172871    -0.01500
C562        C  0.76213285  0.16096622  0.46587974     0.07100
C563        C  0.75893525  0.16781127  0.43411595    -0.07500
C564        C  0.77053744  0.16926715  0.40906286     0.04500
C565        C  0.78576673  0.16381284  0.41565256    -0.14700
C566        C  0.78861918  0.15604857  0.44669865    -0.08100
C567        C  0.75036178  0.16234625  0.49367000     0.05400
C568        C  0.75410752  0.17167471  0.02175788    -0.09200
C569        C  0.74274115  0.17544534  0.04606749     0.00400
C570        C  0.72752167  0.16929704  0.04306665     0.00300
C571        C  0.72416321  0.15930386  0.01560126    -0.12700
C572        C  0.73530010  0.15595283  0.49079517     0.00800
C573        C  0.74665281  0.18691066  0.07161577     0.40100
C574        C  0.73114783  0.14617478  0.46225741     0.36700
C575        C  0.78096858  0.14675495  0.00321134     0.36400
C576        C  0.76662414  0.17727940  0.37787359     0.37200
N577        N  0.74973295  0.19626725  0.09174504    -0.43600
N578        N  0.72784330  0.13841653  0.43922917    -0.44100
N579        N  0.76345179  0.18373948  0.35292598    -0.41400
N580        N  0.78403868  0.14059451  0.02858863    -0.42900
H581        H  0.80012800  0.15160523  0.45212404     0.13300
H582        H  0.74756134  0.17275829  0.42956380     0.09800
H583        H  0.76552335  0.17692325  0.02353278     0.10900
H584        H  0.71254321  0.15460633  0.01282005     0.16700
C585        C  0.63534571  0.10368809  0.18688509    -0.01500
C586        C  0.63188958  0.11959416  0.18321803     0.07100
C587        C  0.61720220  0.12509245  0.19308619    -0.07500
C588        C  0.60592715  0.11499181  0.20629875     0.04500
C589        C  0.60931690  0.09900801  0.20968017    -0.14700
C590        C  0.62406526  0.09355749  0.19991218    -0.08100
C591        C  0.64309304  0.13061685  0.16760490     0.05400
C592        C  0.63960050  0.13698425  0.13558168    -0.09200
C593        C  0.64959201  0.14774134  0.12005711     0.00400
C594        C  0.66335035  0.15247427  0.13693387     0.00300
C595        C  0.66689804  0.14586262  0.16891321    -0.12700
C596        C  0.65691364  0.13504296  0.18428358     0.00800
C597        C  0.64552766  0.15340602  0.08655461     0.40100
C598        C  0.66086634  0.12889745  0.21749171     0.36700
C599        C  0.65020830  0.09742852  0.17658286     0.36400
C600        C  0.59074564  0.12121679  0.21425856     0.37200
N601        N  0.64225502  0.15785362  0.05961734    -0.43600
N602        N  0.66398491  0.12385312  0.24401068    -0.44100
N603        N  0.57856117  0.12619440  0.22048831    -0.41400
N604        N  0.66214353  0.09240265  0.16850426    -0.42900
H605        H  0.62676208  0.08129197  0.20221221     0.13300
H606        H  0.61447772  0.13730939  0.18995693     0.09800
H607        H  0.62902309  0.13346193  0.12260589     0.10900
H608        H  0.67734665  0.14936541  0.18234012     0.16700
C609        C  0.02306266  0.92939786  0.33676800    -0.01500
C610        C  0.00886193  0.93492840  0.32342960     0.07100
C611        C  0.00794757  0.93933831  0.28912978    -0.07500
C612        C  0.02107418  0.93867217  0.26812726     0.04500
C613        C  0.03547974  0.93379706  0.28180303    -0.14700
C614        C  0.03624747  0.92883815  0.31583528    -0.08100
C615        C  0.99462250  0.93551366  0.34443921     0.05400
C616        C  0.98891798  0.94990618  0.35556673    -0.09200
C617        C  0.97603197  0.95068483  0.37749937     0.00400
C618        C  0.96885679  0.93679829  0.38874789     0.00300
C619        C  0.97402833  0.92252938  0.37549432    -0.12700
C620        C  0.98675637  0.92181135  0.35345139     0.00800
C621        C  0.97090731  0.96577540  0.38900051     0.40100
C622        C  0.99171670  0.90688405  0.34065371     0.36700
C623        C  0.02445680  0.92461144  0.37198735     0.36400
C624        C  0.01931567  0.94254140  0.23241837     0.37200
N625        N  0.96673351  0.97786685  0.39808727    -0.43600
N626        N  0.99575324  0.89498158  0.33019817    -0.44100
N627        N  0.01781569  0.94550358  0.20377309    -0.41400
N628        N  0.02562878  0.92072547  0.40016515    -0.42900
H629        H  0.04729507  0.92510486  0.32646156     0.13300
H630        H  0.99689647  0.94315449  0.27870573     0.09800
H631        H  0.99480829  0.96047962  0.34786305     0.10900
H632        H  0.96846460  0.91178836  0.38332441     0.16700
C633        C  0.99632122  0.92849021  0.08633469    -0.01500
C634        C  0.01004896  0.93543980  0.07373648     0.07100
C635        C  0.01036162  0.94132111  0.04043731    -0.07500
C636        C  0.99712048  0.94069844  0.01978480     0.04500
C637        C  0.98326280  0.93386840  0.03245308    -0.14700
C638        C  0.98311990  0.92761650  0.06552651    -0.08100
C639        C  0.02411428  0.93697536  0.09520160     0.05400
C640        C  0.03289723  0.92372286  0.10238112    -0.09200
C641        C  0.04569808  0.92449992  0.12431461     0.00400
C642        C  0.04973756  0.93877837  0.13999165     0.00300
C643        C  0.04141026  0.95222359  0.13113121    -0.12700
C644        C  0.02867933  0.95141351  0.10886321     0.00800
C645        C  0.05436651  0.91041334  0.13036229     0.40100
C646        C  0.01999320  0.96535710  0.10149167     0.36700
C647        C  0.99532328  0.92281191  0.12097292     0.36400
C648        C  0.99794745  0.94684292  0.48585775     0.37200
N649        N  0.06131929  0.89912285  0.13511823    -0.43600
N650        N  0.01294727  0.97644133  0.09528273    -0.44100
N651        N  0.99902225  0.95192858  0.45858636    -0.41400
N652        N  0.99446023  0.91833121  0.14878217    -0.42900
H653        H  0.97247576  0.92252544  0.07561901     0.13300
H654        H  0.02098799  0.94657741  0.03070880     0.09800
H655        H  0.02957202  0.91266966  0.09114615     0.10900
H656        H  0.04431565  0.96325585  0.14296810     0.16700
C657        C  0.14048019  0.86932490  0.13154693    -0.01500
C658        C  0.14592057  0.88091589  0.15391829     0.07100
C659        C  0.16195153  0.88248317  0.15946682    -0.07500
C660        C  0.17259486  0.87253234  0.14332676     0.04500
C661        C  0.16713908  0.86061447  0.12141900    -0.14700
C662        C  0.15104273  0.85928940  0.11566622    -0.08100
C663        C  0.13504592  0.89213490  0.16985891     0.05400
C664        C  0.12807626  0.88858963  0.20132617    -0.09200
C665        C  0.11699409  0.89858132  0.21585819     0.00400
C666        C  0.11264313  0.91232472  0.19849025     0.00300
C667        C  0.12005319  0.91599683  0.16748323    -0.12700
C668        C  0.13114757  0.90605149  0.15316264     0.00800
C669        C  0.11057787  0.89461505  0.24885498     0.40100
C670        C  0.13820196  0.91016855  0.12091470     0.36700
C671        C  0.12410665  0.86768475  0.12411754     0.36400
C672        C  0.18898683  0.87523901  0.14880680     0.37200
N673        N  0.10549879  0.89151969  0.27540483    -0.43600
N674        N  0.14391789  0.91341441  0.09509692    -0.44100
N675        N  0.20210801  0.87756523  0.15311158    -0.41400
N676        N  0.11099518  0.86642222  0.11799276    -0.42900
H677        H  0.14662393  0.85024582  0.09897374     0.13300
H678        H  0.16615425  0.89166676  0.17606808     0.09800
H679        H  0.13121252  0.87794088  0.21436877     0.10900
H680        H  0.11687813  0.92647323  0.15383127     0.16700
C681        C  0.28754495  0.83483748  0.47841788    -0.01500
C682        C  0.27352587  0.84017878  0.46363477     0.07100
C683        C  0.27302189  0.84243909  0.42801392    -0.07500
C684        C  0.28530618  0.83759495  0.40695681     0.04500
C685        C  0.29890355  0.83141165  0.42172681    -0.14700
C686        C  0.30012347  0.83083325  0.45746214    -0.08100
C687        C  0.25880339  0.84132653  0.48397904     0.05400
C688        C  0.25784857  0.84984488  0.01355319    -0.09200
C689        C  0.24487837  0.84902106  0.03541567     0.00400
C690        C  0.23171669  0.84034269  0.02553064     0.00300
C691        C  0.23174297  0.83282673  0.99380620    -0.12700
C692        C  0.24530773  0.83307108  0.47391211     0.00800
C693        C  0.24534596  0.85710197  0.06769930     0.40100
C694        C  0.24493753  0.82349923  0.44358327     0.36700
C695        C  0.28902802  0.83212953  0.51467858     0.36400
C696        C  0.28339190  0.83854355  0.37038046     0.37200
N697        N  0.24577912  0.86358797  0.09358526    -0.43600
N698        N  0.24463254  0.81583254  0.41929966    -0.44100
N699        N  0.28175303  0.83919102  0.34107209    -0.41400
N700        N  0.28976922  0.83064497  0.04299595    -0.42900
H701        H  0.31053764  0.82608696  0.46907943     0.13300
H702        H  0.26254135  0.84700882  0.41640181     0.09800
H703        H  0.26790478  0.85668832  0.02117274     0.10900
H704        H  0.22169641  0.82590701  0.98626142     0.16700
C705        C  0.51261779  0.93458495  0.15568176    -0.01500
C706        C  0.51401606  0.92730498  0.12367576     0.07100
C707        C  0.50170162  0.91821178  0.11123153    -0.07500
C708        C  0.48775272  0.91685566  0.12963513     0.04500
C709        C  0.48613771  0.92464307  0.16122970    -0.14700
C710        C  0.49880796  0.93315452  0.17414979    -0.08100
C711        C  0.52784184  0.92985628  0.10188175     0.05400
C712        C  0.53816524  0.91755785  0.09620564    -0.09200
C713        C  0.55078363  0.91931614  0.07390281     0.00400
C714        C  0.55318444  0.93363843  0.05701391     0.00300
C715        C  0.54326314  0.94614945  0.06406964    -0.12700
C716        C  0.53052859  0.94430470  0.08597527     0.00800
C717        C  0.56098732  0.90621815  0.06851551     0.40100
C718        C  0.51982554  0.95708561  0.09010793     0.36700
C719        C  0.52507446  0.94387564  0.16969591     0.36400
C720        C  0.47513472  0.90813717  0.11463100     0.37200
N721        N  0.56918586  0.89575597  0.06407789    -0.43600
N722        N  0.51119853  0.96728615  0.09336950    -0.44100
N723        N  0.46505020  0.90117923  0.10237842    -0.41400
N724        N  0.53500550  0.95141699  0.18082019    -0.42900
H725        H  0.49786801  0.93897071  0.19871523     0.13300
H726        H  0.50280924  0.91261654  0.08644339     0.09800
H727        H  0.53617606  0.90650247  0.10873171     0.10900
H728        H  0.54485469  0.95707348  0.05079652     0.16700
C729        C  0.48547458  0.93390143  0.35833314    -0.01500
C730        C  0.49942284  0.92548793  0.35445168     0.07100
C731        C  0.50148712  0.91595080  0.32589857    -0.07500
C732        C  0.49016648  0.91518576  0.30041103     0.04500
C733        C  0.47613738  0.92367257  0.30402614    -0.14700
C734        C  0.47389659  0.93284839  0.33328100    -0.08100
C735        C  0.51292836  0.92803022  0.37705897     0.05400
C736        C  0.51756633  0.91623916  0.39952254    -0.09200
C737        C  0.53119207  0.91783064  0.41880640     0.00400
C738        C  0.54042184  0.93129123  0.41519901     0.00300
C739        C  0.53550116  0.94325601  0.39351084    -0.12700
C740        C  0.52195617  0.94163924  0.37415166     0.00800
C741        C  0.53513674  0.90588731  0.44318913     0.40100
C742        C  0.51790513  0.95371800  0.35018305     0.36700
C743        C  0.48311245  0.94415300  0.38705862     0.36400
C744        C  0.49403119  0.90689057  0.26942235     0.37200
N745        N  0.53834775  0.89648150  0.46306366    -0.43600
N746        N  0.51457817  0.96327728  0.33076917    -0.44100
N747        N  0.49722586  0.90045308  0.24441315    -0.41400
N748        N  0.48128679  0.95246533  0.40994998    -0.42900
H749        H  0.46329252  0.93952485  0.33612704     0.13300
H750        H  0.51242129  0.90984754  0.32250940     0.09800
H751        H  0.51058922  0.90580071  0.40180631     0.10900
H752        H  0.54251102  0.95367089  0.39088984     0.16700
C753        C  0.39253692  0.88627999  0.28813199    -0.01500
C754        C  0.39339297  0.87063738  0.27785824     0.07100
C755        C  0.40454349  0.86614654  0.25367484    -0.07500
C756        C  0.41498324  0.87698565  0.23993961     0.04500
C757        C  0.41439861  0.89268172  0.25076999    -0.14700
C758        C  0.40302557  0.89709906  0.27474184    -0.08100
C759        C  0.38284875  0.85880902  0.29258707     0.05400
C760        C  0.36700440  0.85925436  0.28427859    -0.09200
C761        C  0.35647821  0.84887819  0.29928306     0.00400
C762        C  0.36179512  0.83803754  0.32380867     0.00300
C763        C  0.37776004  0.83743147  0.33142105    -0.12700
C764        C  0.38830125  0.84753771  0.31568678     0.00800
C765        C  0.34034048  0.84986115  0.28927254     0.40100
C766        C  0.40462492  0.84620136  0.32386221     0.36700
C767        C  0.38119852  0.89143062  0.31294540     0.36400
C768        C  0.42621156  0.87151170  0.21525608     0.37200
N769        N  0.32743852  0.85062927  0.28099888    -0.43600
N770        N  0.41771557  0.84499519  0.33021841    -0.44100
N771        N  0.43514295  0.86703480  0.19540936    -0.41400
N772        N  0.37208075  0.89556533  0.33273939    -0.42900
H773        H  0.40235278  0.90905599  0.28332748     0.13300
H774        H  0.40511412  0.85410456  0.24565075     0.09800
H775        H  0.36286636  0.86780830  0.26615703     0.10900
H776        H  0.38206798  0.82895867  0.34953298     0.16700
C777        C  0.98617944  0.03905613  0.36101733    -0.01500
C778        C  0.98795055  0.05231085  0.38193136     0.07100
C779        C  0.97651933  0.06391992  0.38106957    -0.07500
C780        C  0.96394818  0.06290428  0.35837919     0.04500
C781        C  0.96291720  0.05031054  0.33537641    -0.14700
C782        C  0.97372172  0.03815304  0.33797731    -0.08100
C783        C  0.00201920  0.05467702  0.40346843     0.05400
C784        C  0.01277860  0.06623691  0.39424656    -0.09200
C785        C  0.02665473  0.06835478  0.41261678     0.00400
C786        C  0.02975375  0.05903384  0.44156386     0.00300
C787        C  0.01874684  0.04765986  0.45097529    -0.12700
C788        C  0.00509790  0.04534403  0.43218058     0.00800
C789        C  0.03775668  0.07957088  0.40002724     0.40100
C790        C  0.99453165  0.03317186  0.44257754     0.36700
C791        C  0.99738926  0.02658559  0.36162729     0.36400
C792        C  0.95209733  0.07476824  0.35949345     0.37200
N793        N  0.04667595  0.08846261  0.38955741    -0.43600
N794        N  0.98616651  0.02328885  0.45066438    -0.44100
N795        N  0.94244194  0.08411236  0.36056140    -0.41400
N796        N  0.00631578  0.01654496  0.36248409    -0.42900
H797        H  0.97298919  0.02838206  0.32062218     0.13300
H798        H  0.97755504  0.07389062  0.39781223     0.09800
H799        H  0.01052529  0.07334387  0.37182950     0.10900
H800        H  0.02088255  0.04029280  0.47302500     0.16700
C801        C  0.02543827  0.04591184  0.11717278    -0.01500
C802        C  0.02014462  0.05992446  0.13178895     0.07100
C803        C  0.02855009  0.07364934  0.12647889    -0.07500
C804        C  0.04148322  0.07380492  0.10483411     0.04500
C805        C  0.04599767  0.06004520  0.08793135    -0.14700
C806        C  0.03836553  0.04607147  0.09552340    -0.08100
C807        C  0.00587817  0.06045528  0.15273741     0.05400
C808        C  0.00590631  0.05291851  0.18431128    -0.09200
C809        C  0.99250067  0.05238801  0.20433753     0.00400
C810        C  0.97863195  0.05938776  0.19251292     0.00300
C811        C  0.97880791  0.06759079  0.16155557    -0.12700
C812        C  0.99231863  0.06815036  0.14153859     0.00800
C813        C  0.99345945  0.04484548  0.23721651     0.40100
C814        C  0.99184534  0.07610799  0.10907613     0.36700
C815        C  0.01725065  0.03143171  0.12221714     0.36400
C816        C  0.04989313  0.08818749  0.10030563     0.37200
N817        N  0.99430006  0.03884929  0.26359485    -0.43600
N818        N  0.99146621  0.08249304  0.08307813    -0.44100
N819        N  0.05669975  0.09939046  0.59729443    -0.41400
N820        N  0.01076148  0.01978112  0.12610644    -0.42900
H821        H  0.04178268  0.03544557  0.08261839     0.13300
H822        H  0.02478557  0.08431665  0.13876443     0.09800
H823        H  0.01648587  0.04731843  0.19322563     0.10900
H824        H  0.96821467  0.07307047  0.15234713     0.16700
C825        C  0.10071569  0.01725055  0.38590143    -0.01500
C826        C  0.09110423  0.00405986  0.38326521     0.07100
C827        C  0.07997730  0.00111498  0.40869108    -0.07500
C828        C  0.07784499  0.01152752  0.43580597     0.04500
C829        C  0.08699672  0.02517045  0.43761726    -0.14700
C830        C  0.09853655  0.02775018  0.41282177    -0.08100
C831        C  0.09135622  0.99404957  0.35248488     0.05400
C832        C  0.10057240  0.98065406  0.35217013    -0.09200
C833        C  0.10015006  0.97043823  0.32426466     0.00400
C834        C  0.09022840  0.97352898  0.29627232     0.00300
C835        C  0.08162766  0.98738476  0.29599201    -0.12700
C836        C  0.08209890  0.99759706  0.32384566     0.00800
C837        C  0.11019044  0.95701657  0.32474408     0.40100
C838        C  0.07261447  0.01142460  0.32307549     0.36700
C839        C  0.11249950  0.02047289  0.36057525     0.36400
C840        C  0.06523803  0.00864645  0.45948091     0.37200
N841        N  0.11835782  0.94634513  0.32500312    -0.43600
N842        N  0.06506048  0.02253564  0.32261694    -0.44100
N843        N  0.05509224  0.00642398  0.47835657    -0.41400
N844        N  0.12197629  0.02299349  0.34028132    -0.42900
H845        H  0.10552651  0.03821916  0.41389976     0.13300
H846        H  0.07248561  0.99104775  0.40646028     0.09800
H847        H  0.10791648  0.97809395  0.37388997     0.10900
H848        H  0.07392351  0.98986171  0.27482837     0.16700
C849        C  0.13659636  0.13732009  0.07833921    -0.01500
C850        C  0.14058176  0.12354308  0.06083260     0.07100
C851        C  0.15621745  0.12100009  0.05203165    -0.07500
C852        C  0.16773424  0.13203013  0.05966637     0.04500
C853        C  0.16362508  0.14618243  0.07578433    -0.14700
C854        C  0.14802835  0.14848185  0.08540594    -0.08100
C855        C  0.12847678  0.11216089  0.04976059     0.05400
C856        C  0.11633675  0.11735457  0.02875903    -0.09200
C857        C  0.10464472  0.10724508  0.01747661     0.00400
C858        C  0.10513477  0.09132444  0.02640435     0.00300
C859        C  0.11733359  0.08613275  0.04753435    -0.12700
C860        C  0.12889554  0.09636023  0.05926874     0.00800
C861        C  0.09216556  0.11376645  0.99747940     0.40100
C862        C  0.14083218  0.09043904  0.08168356     0.36700
C863        C  0.12087152  0.14015172  0.08982124     0.36400
C864        C  0.18367311  0.12826325  0.05140700     0.37200
N865        N  0.08242589  0.11882736  0.47979692    -0.43600
N866        N  0.15040900  0.08569016  0.09960675    -0.44100
N867        N  0.19611252  0.12528834  0.54481065    -0.41400
N868        N  0.10826240  0.14236435  0.09902872    -0.42900
H869        H  0.14467794  0.15911915  0.09831135     0.13300
H870        H  0.15907311  0.11051620  0.53895238     0.09800
H871        H  0.11596643  0.12945541  0.02119291     0.10900
H872        H  0.11782982  0.07405194  0.05514200     0.16700
C873        C  0.48822145  0.08008835  0.37657321    -0.01500
C874        C  0.49586595  0.06696013  0.36332988     0.07100
C875        C  0.49055963  0.05210522  0.37213657    -0.07500
C876        C  0.47809688  0.05013027  0.39481722     0.04500
C877        C  0.47057801  0.06327781  0.40893889    -0.14700
C878        C  0.47566338  0.07817754  0.39906009    -0.08100
C879        C  0.50974601  0.06835873  0.34103698     0.05400
C880        C  0.52398607  0.07293399  0.35538510    -0.09200
C881        C  0.53760636  0.07328938  0.33565482     0.00400
C882        C  0.53700467  0.06912140  0.30078606     0.00300
C883        C  0.52268178  0.06467366  0.28648640    -0.12700
C884        C  0.50911758  0.06429285  0.30623189     0.00800
C885        C  0.55214816  0.07698216  0.35222521     0.40100
C886        C  0.49464197  0.05981993  0.29029903     0.36700
C887        C  0.49313828  0.09558880  0.36749627     0.36400
C888        C  0.47396682  0.03447670  0.40440427     0.37200
N889        N  0.56385702  0.07980626  0.36543198    -0.43600
N890        N  0.48300772  0.05627572  0.27762525    -0.44100
N891        N  0.47076986  0.02190199  0.41213256    -0.41400
N892        N  0.49712310  0.10798337  0.36011530    -0.42900
H893        H  0.47007552  0.08840356  0.40956198     0.13300
H894        H  0.49649545  0.04200723  0.36196747     0.09800
H895        H  0.52451825  0.07583676  0.38247467     0.10900
H896        H  0.52206142  0.06148000  0.25960292     0.16700
C897        C  0.52865528  0.08603061  0.12170964    -0.01500
C898        C  0.52134558  0.07241572  0.11000053     0.07100
C899        C  0.52801849  0.05795326  0.11715552    -0.07500
C900        C  0.54121335  0.05678530  0.13784078     0.04500
C901        C  0.54776613  0.07034245  0.15229951    -0.14700
C902        C  0.54167637  0.08490986  0.14301077    -0.08100
C903        C  0.50677025  0.07278078  0.09001652     0.05400
C904        C  0.50756532  0.06929930  0.05521804    -0.09200
C905        C  0.49404096  0.06755219  0.03592925     0.00400
C906        C  0.47928327  0.06928566  0.05157894     0.00300
C907        C  0.47848031  0.07345919  0.08620963    -0.12700
C908        C  0.49211919  0.07509256  0.10560915     0.00800
C909        C  0.49560784  0.06483288  0.49990947     0.40100
C910        C  0.49083491  0.07838979  0.14168916     0.36700
C911        C  0.52304182  0.10119325  0.11204725     0.36400
C912        C  0.54719734  0.04148061  0.14504695     0.37200
N913        N  0.49719736  0.06220120  0.47112325    -0.43600
N914        N  0.48982384  0.08100282  0.17061928    -0.44100
N915        N  0.55201331  0.02920910  0.15071296    -0.41400
N916        N  0.51866387  0.11335281  0.10400469    -0.42900
H917        H  0.54681389  0.09544345  0.15319318     0.13300
H918        H  0.52261032  0.04747817  0.10721948     0.09800
H919        H  0.51886055  0.06759909  0.04323501     0.10900
H920        H  0.46719557  0.07478933  0.09844906     0.16700
C921        C  0.41227625  0.01250503  0.09876956    -0.01500
C922        C  0.42005469  0.99818388  0.09530272     0.07100
C923        C  0.42923866  0.99556098  0.06620752    -0.07500
C924        C  0.43167216  0.00726626  0.04193968     0.04500
C925        C  0.42469781  0.02201026  0.04646708    -0.14700
C926        C  0.41467449  0.02425326  0.07450642    -0.08100
C927        C  0.42010506  0.98618706  0.12268795     0.05400
C928        C  0.41479886  0.97118762  0.11499903    -0.09200
C929        C  0.41758943  0.95874785  0.13723816     0.00400
C930        C  0.42570685  0.96125515  0.16825673     0.00300
C931        C  0.42998034  0.97651078  0.17700408    -0.12700
C932        C  0.42752486  0.98886256  0.15432459     0.00800
C933        C  0.41266303  0.94346392  0.12655244     0.40100
C934        C  0.43412778  0.00382662  0.16259895     0.36700
C935        C  0.40210761  0.01554986  0.12738484     0.36400
C936        C  0.44240162  0.00409805  0.01437628     0.37200
N937        N  0.40882103  0.93120864  0.11780163    -0.43600
N938        N  0.43949310  0.01580556  0.16903323    -0.44100
N939        N  0.45170656  0.00080506  0.49215579    -0.41400
N940        N  0.39398829  0.01807644  0.15033766    -0.42900
H941        H  0.40908373  0.03542219  0.07814201     0.13300
H942        H  0.43523341  0.98455628  0.06339729     0.09800
H943        H  0.40917598  0.96905468  0.09067957     0.10900
H944        H  0.43632889  0.97864935  0.20044049     0.16700
C945        C  0.26696776  0.14540040  0.25521843    -0.01500
C946        C  0.26804571  0.15066541  0.22117548     0.07100
C947        C  0.28213796  0.15694350  0.20959451    -0.07500
C948        C  0.29464019  0.15917411  0.23194631     0.04500
C949        C  0.29293550  0.15554371  0.26709922    -0.14700
C950        C  0.27923421  0.14815600  0.27802999    -0.08100
C951        C  0.25399213  0.15259955  0.19951075     0.05400
C952        C  0.24278154  0.16329883  0.21050706    -0.09200
C953        C  0.23055100  0.16773006  0.18923505     0.00400
C954        C  0.22905090  0.16105648  0.15639239     0.00300
C955        C  0.24009509  0.15010335  0.14545930    -0.12700
C956        C  0.25258399  0.14590564  0.16671329     0.00800
C957        C  0.22069495  0.18036052  0.20038888     0.40100
C958        C  0.26395275  0.13495681  0.15425888     0.36700
C959        C  0.25337328  0.13715917  0.26712849     0.36400
C960        C  0.30861302  0.16620306  0.21835605     0.37200
N961        N  0.21290497  0.19062113  0.20886386    -0.43600
N962        N  0.27312275  0.12621883  0.14431153    -0.44100
N963        N  0.31981660  0.17173944  0.20727807    -0.41400
N964        N  0.24260465  0.13029462  0.27654109    -0.42900
H965        H  0.27796658  0.14481450  0.30468660     0.13300
H966        H  0.28307015  0.16098553  0.18332326     0.09800
H967        H  0.24413049  0.16892409  0.23512956     0.10900
H968        H  0.23912572  0.14505927  0.12018235     0.16700
C969        C  0.37747433  0.12659651  0.37267787    -0.01500
C970        C  0.37347391  0.11834862  0.40253520     0.07100
C971        C  0.35858829  0.12021024  0.41658033    -0.07500
C972        C  0.34774887  0.13029359  0.40169591     0.04500
C973        C  0.35188336  0.13901228  0.37231842    -0.14700
C974        C  0.36673097  0.13680270  0.35792157    -0.08100
C975        C  0.38457227  0.10772570  0.41976890     0.05400
C976        C  0.39175245  0.11251089  0.45015617    -0.09200
C977        C  0.40212461  0.10273113  0.46753303     0.00400
C978        C  0.40535876  0.08769608  0.45457909     0.00300
C979        C  0.39780370  0.08288202  0.42447558    -0.12700
C980        C  0.38759114  0.09274538  0.40702540     0.00800
C981        C  0.40931107  0.10856442  0.49830252     0.40100
C982        C  0.38034971  0.08726555  0.37602043     0.36700
C983        C  0.39265318  0.12514996  0.35716347     0.36400
C984        C  0.33259228  0.13141886  0.41747848     0.37200
N985        N  0.41508213  0.11326669  0.52293194    -0.43600
N986        N  0.37459392  0.08288741  0.35109784    -0.44100
N987        N  0.32044843  0.13218841  0.43020181    -0.41400
N988        N  0.40476466  0.12414497  0.34438502    -0.42900
H989        H  0.37011588  0.14328064  0.33537843     0.13300
H990        H  0.35544780  0.11375187  0.43931279     0.09800
H991        H  0.38932591  0.12401236  0.46017336     0.10900
H992        H  0.40009807  0.07144074  0.41401718     0.16700
C993        C  0.82275230  0.26563021  0.49056048    -0.01500
C994        C  0.83581911  0.25630183  0.48356864     0.07100
C995        C  0.85029765  0.26027224  0.49730943    -0.07500
C996        C  0.85182795  0.27300310  0.51916481     0.04500
C997        C  0.83867070  0.28195256  0.02825499    -0.14700
C998        C  0.82438699  0.27860687  0.01243452    -0.08100
C999        C  0.83463344  0.24224917  0.46218472     0.05400
C1000       C  0.83193057  0.24395525  0.42716577    -0.09200
C1001       C  0.83047018  0.23095411  0.40612839     0.00400
C1002       C  0.83177291  0.21592209  0.42028106     0.00300
C1003       C  0.83497013  0.21422586  0.45517475    -0.12700
C1004       C  0.83627064  0.22727064  0.47628378     0.00800
C1005       C  0.82809432  0.23338374  0.36998722     0.40100
C1006       C  0.83862381  0.22504919  0.51248315     0.36700
C1007       C  0.80767722  0.26217562  0.47617076     0.36400
C1008       C  0.86718201  0.27643190  0.53214731     0.37200
N1009       N  0.82624291  0.23538588  0.34104213    -0.43600
N1010       N  0.84043357  0.22331145  0.54152486    -0.44100
N1011       N  0.87954996  0.27910313  0.54226581    -0.41400
N1012       N  0.79586323  0.26044091  0.96300085    -0.42900
H1013       H  0.81416797  0.28546765  0.01843558     0.13300
H1014       H  0.86040992  0.25325659  0.49118176     0.09800
H1015       H  0.83093882  0.25551890  0.41628717     0.10900
H1016       H  0.83589834  0.20267486  0.46617712     0.16700
C1017       C  0.85253320  0.24667635  0.18398669    -0.01500
C1018       C  0.83965018  0.24285712  0.20480842     0.07100
C1019       C  0.82747914  0.25354320  0.20840240    -0.07500
C1020       C  0.82783115  0.26777453  0.19140646     0.04500
C1021       C  0.84065279  0.27162255  0.17043469    -0.14700
C1022       C  0.85298808  0.26105885  0.16712756    -0.08100
C1023       C  0.83900332  0.22850652  0.22572920     0.05400
C1024       C  0.84962128  0.22688279  0.25254167    -0.09200
C1025       C  0.84761454  0.21537828  0.27737242     0.00400
C1026       C  0.83456739  0.20526350  0.27581453     0.00300
C1027       C  0.82445803  0.20635867  0.24774172    -0.12700
C1028       C  0.82667812  0.21776209  0.22263211     0.00800
C1029       C  0.85865761  0.21502738  0.30515876     0.40100
C1030       C  0.81615441  0.21830583  0.19394644     0.36700
C1031       C  0.86507735  0.23581506  0.17862950     0.36400
C1032       C  0.81508442  0.27843523  0.19678714     0.37200
N1033       N  0.86753622  0.21481124  0.32736009    -0.43600
N1034       N  0.80781944  0.21867568  0.17076776    -0.44100
N1035       N  0.80488477  0.28697642  0.20112038    -0.41400
N1036       N  0.87509821  0.22708037  0.17414984    -0.42900
H1037       H  0.86273658  0.26383516  0.15051275     0.13300
H1038       H  0.81772635  0.25082138  0.22506887     0.09800
H1039       H  0.85905673  0.23515830  0.25507573     0.10900
H1040       H  0.81463892  0.19851907  0.24573371     0.16700
C1041       C  0.86853878  0.36978578  0.04009984    -0.01500
C1042       C  0.88480169  0.36994579  0.04492059     0.07100
C1043       C  0.89156924  0.35887145  0.06656562    -0.07500
C1044       C  0.88250954  0.34742967  0.08247946     0.04500
C1045       C  0.86623740  0.34702658  0.07710325    -0.14700
C1046       C  0.85944962  0.35839099  0.05606737    -0.08100
C1047       C  0.89497575  0.38151546  0.02759850     0.05400
C1048       C  0.89280012  0.39735204  0.03434883    -0.09200
C1049       C  0.90250086  0.40858712  0.01962869     0.00400
C1050       C  0.91478441  0.40401642  0.99766814     0.00300
C1051       C  0.91664771  0.38816768  0.99016900    -0.12700
C1052       C  0.90696609  0.37694537  0.00505074     0.00800
C1053       C  0.89948402  0.42468123  0.02755716     0.40100
C1054       C  0.90963380  0.36079953  0.99699701     0.36700
C1055       C  0.86097184  0.38046616  0.51536453     0.36400
C1056       C  0.89036016  0.33591776  0.10294244     0.37200
N1057       N  0.89704812  0.43757424  0.03393272    -0.43600
N1058       N  0.91181265  0.34784473  0.99078597    -0.44100
N1059       N  0.89660205  0.32662483  0.11926584    -0.41400
N1060       N  0.85509881  0.38908480  0.49674913    -0.42900
H1061       H  0.84699818  0.35827098  0.05163652     0.13300
H1062       H  0.90405484  0.35905530  0.07067884     0.09800
H1063       H  0.88360362  0.40093583  0.05167074     0.10900
H1064       H  0.92600964  0.38445147  0.97343513     0.16700
C1065       C  0.93297248  0.50241256  0.30557530    -0.01500
C1066       C  0.92258893  0.50409911  0.33327000     0.07100
C1067       C  0.91281045  0.51706631  0.33473125    -0.07500
C1068       C  0.91373519  0.52869217  0.30976746     0.04500
C1069       C  0.92468186  0.52742592  0.28286566    -0.14700
C1070       C  0.93383010  0.51396072  0.28047690    -0.08100
C1071       C  0.92275143  0.49297549  0.36208775     0.05400
C1072       C  0.93092875  0.49696042  0.39177018    -0.09200
C1073       C  0.93389739  0.48585537  0.41706422     0.00400
C1074       C  0.92877948  0.47035214  0.41240988     0.00300
C1075       C  0.91946582  0.46681269  0.38391557    -0.12700
C1076       C  0.91634783  0.47801204  0.35896540     0.00800
C1077       C  0.94305708  0.49056390  0.44620314     0.40100
C1078       C  0.90691338  0.47384355  0.32989430     0.36700
C1079       C  0.94358638  0.48943831  0.30369357     0.36400
C1080       C  0.90337153  0.54180566  0.31253400     0.37200
N1081       N  0.95036818  0.49443260  0.46952426    -0.43600
N1082       N  0.89925689  0.47058715  0.30667028    -0.44100
N1083       N  0.89498687  0.55225850  0.31481018    -0.41400
N1084       N  0.95211721  0.47906634  0.30240928    -0.42900
H1085       H  0.94238002  0.51290226  0.26024447     0.13300
H1086       H  0.90473983  0.51827692  0.35584987     0.09800
H1087       H  0.93566660  0.50856783  0.39434854     0.10900
H1088       H  0.91512719  0.45509633  0.38036127     0.16700
C1089       C  0.82263541  0.72909421  0.20364835    -0.01500
C1090       C  0.83698317  0.72900872  0.22104011     0.07100
C1091       C  0.84750280  0.71687443  0.21567172    -0.07500
C1092       C  0.84429204  0.70530962  0.19156558     0.04500
C1093       C  0.83027135  0.70581968  0.17272802    -0.14700
C1094       C  0.81932737  0.71745054  0.17985702    -0.08100
C1095       C  0.84150947  0.74222332  0.24281296     0.05400
C1096       C  0.83765188  0.74191517  0.27750363    -0.09200
C1097       C  0.83876308  0.75539298  0.29720645     0.00400
C1098       C  0.84372198  0.76943238  0.28190686     0.00300
C1099       C  0.84902403  0.76931615  0.24803835    -0.12700
C1100       C  0.84783575  0.75582026  0.22831332     0.00800
C1101       C  0.83431551  0.75464001  0.33278375     0.40100
C1102       C  0.85205354  0.75639931  0.19261368     0.36700
C1103       C  0.81152985  0.74147724  0.20866245     0.36400
C1104       C  0.85563153  0.69317712  0.18631766     0.37200
N1105       N  0.83080118  0.75403836  0.36130348    -0.43600
N1106       N  0.85533543  0.75674530  0.16393849    -0.44100
N1107       N  0.86469754  0.68343668  0.18208366    -0.41400
N1108       N  0.80272732  0.75146749  0.21276205    -0.42900
H1109       H  0.80858704  0.71800234  0.16533213     0.13300
H1110       H  0.85846758  0.71676916  0.22942437     0.09800
H1111       H  0.83299504  0.73134328  0.28871747     0.10900
H1112       H  0.85291608  0.78005528  0.23616115     0.16700
C1113       C  0.81553103  0.76399452  0.44193897    -0.01500
C1114       C  0.82778807  0.76236500  0.46556515     0.07100
C1115       C  0.83953012  0.77364854  0.46693822    -0.07500
C1116       C  0.83965352  0.78603522  0.44380379     0.04500
C1117       C  0.82798758  0.78704102  0.41854935    -0.14700
C1118       C  0.81564911  0.77636895  0.41887536    -0.08100
C1119       C  0.82844106  0.74892989  0.98853642     0.05400
C1120       C  0.83890175  0.73662165  0.48029599    -0.09200
C1121       C  0.83878359  0.72306322  0.99952069     0.00400
C1122       C  0.82852691  0.72138019  0.02759819     0.00300
C1123       C  0.81861411  0.73380992  0.03614049    -0.12700
C1124       C  0.81847234  0.74745934  0.01684854     0.00800
C1125       C  0.84925272  0.71051487  0.48878065     0.40100
C1126       C  0.80784768  0.75975075  0.02609648     0.36700
C1127       C  0.80323193  0.75260098  0.43957921     0.36400
C1128       C  0.85175053  0.79763144  0.44645776     0.37200
N1129       N  0.85739651  0.70054965  0.48020674    -0.43600
N1130       N  0.79933869  0.76964643  0.03320478    -0.44100
N1131       N  0.86129071  0.80708604  0.44845478    -0.41400
N1132       N  0.79338564  0.74346438  0.43763943    -0.42900
H1133       H  0.80663368  0.77702876  0.39945168     0.13300
H1134       H  0.84875967  0.77261477  0.48579800     0.09800
H1135       H  0.84650847  0.73774556  0.45822826     0.10900
H1136       H  0.81072922  0.73281357  0.05773697     0.16700
C1137       C  0.85720185  0.62495893  0.15468537    -0.01500
C1138       C  0.87171041  0.62188128  0.13942091     0.07100
C1139       C  0.87539975  0.62883386  0.10802213    -0.07500
C1140       C  0.86509253  0.63930146  0.09249389     0.04500
C1141       C  0.85106105  0.64337721  0.10922585    -0.14700
C1142       C  0.84712403  0.63572462  0.13979679    -0.08100
C1143       C  0.88317385  0.61156837  0.15626855     0.05400
C1144       C  0.88034563  0.59554551  0.15721819    -0.09200
C1145       C  0.89066161  0.58547541  0.17379266     0.00400
C1146       C  0.90408038  0.59148119  0.19004299     0.00300
C1147       C  0.90668653  0.60759217  0.18959786    -0.12700
C1148       C  0.89645104  0.61761082  0.17270430     0.00800
C1149       C  0.88696329  0.56912404  0.17427257     0.40100
C1150       C  0.89978323  0.63404825  0.17271398     0.36700
C1151       C  0.85256534  0.61743946  0.18606447     0.36400
C1152       C  0.86900289  0.64523927  0.05907746     0.37200
N1153       N  0.88391317  0.55603381  0.17460822    -0.43600
N1154       N  0.90253665  0.64720442  0.17274312    -0.44100
N1155       N  0.87206555  0.64976999  0.03205168    -0.41400
N1156       N  0.84883095  0.61127751  0.21103632    -0.42900
H1157       H  0.83629861  0.63844704  0.15275597     0.13300
H1158       H  0.88636010  0.62605014  0.09564591     0.09800
H1159       H  0.87001838  0.59091791  0.14498225     0.10900
H1160       H  0.91697962  0.61236266  0.20170261     0.16700
C1161       C  0.70839143  0.26931258  0.46663974    -0.01500
C1162       C  0.69515477  0.26948286  0.48791265     0.07100
C1163       C  0.68501607  0.28244935  0.98674169    -0.07500
C1164       C  0.68732913  0.29417664  0.46310508     0.04500
C1165       C  0.70051701  0.29387222  0.44144192    -0.14700
C1166       C  0.71112829  0.28159422  0.44413016    -0.08100
C1167       C  0.69175926  0.25642274  0.01061968     0.05400
C1168       C  0.70012726  0.25520601  0.04111203    -0.09200
C1169       C  0.69958726  0.24158034  0.06049939     0.00400
C1170       C  0.69031848  0.22887121  0.04949553     0.00300
C1171       C  0.68124432  0.23051294  0.01992787    -0.12700
C1172       C  0.68209347  0.24407139  0.00020653     0.00800
C1173       C  0.70899364  0.24093812  0.09106713     0.40100
C1174       C  0.67386464  0.24464681  0.96812221     0.36700
C1175       C  0.71874328  0.25612421  0.46587334     0.36400
C1176       C  0.67619131  0.30671160  0.46167651     0.37200
N1177       N  0.71661680  0.24038910  0.11539611    -0.43600
N1178       N  0.66740686  0.24508025  0.94222257    -0.44100
N1179       N  0.66807223  0.31764689  0.96174679    -0.41400
N1180       N  0.72689775  0.24545087  0.46506025    -0.42900
H1181       H  0.72103899  0.28105618  0.42699694     0.13300
H1182       H  0.67499918  0.28275245  0.00353448     0.09800
H1183       H  0.70764067  0.26467077  0.04893409     0.10900
H1184       H  0.67413818  0.22089587  0.01118675     0.16700
C1185       C  0.69018188  0.26999826  0.24061897    -0.01500
C1186       C  0.69230504  0.25495159  0.25406484     0.07100
C1187       C  0.69591851  0.25308036  0.28866223    -0.07500
C1188       C  0.69764344  0.26595919  0.30995154     0.04500
C1189       C  0.69565809  0.28104059  0.29649701    -0.14700
C1190       C  0.69168319  0.28289586  0.26202415    -0.08100
C1191       C  0.69156086  0.24100965  0.23222912     0.05400
C1192       C  0.70518220  0.23242676  0.22694189    -0.09200
C1193       C  0.70527324  0.21960612  0.20505937     0.00400
C1194       C  0.69153863  0.21544145  0.18737844     0.00300
C1195       C  0.67770108  0.22359849  0.19433964    -0.12700
C1196       C  0.67757903  0.23615527  0.21693940     0.00800
C1197       C  0.71967430  0.21118543  0.20104685     0.40100
C1198       C  0.66298517  0.24369874  0.22467177     0.36700
C1199       C  0.68724729  0.27254112  0.20473140     0.36400
C1200       C  0.70119751  0.26331325  0.34553375     0.37200
N1201       N  0.73119640  0.20437116  0.19807657    -0.43600
N1202       N  0.65130486  0.24968079  0.23124758    -0.44100
N1203       N  0.70403226  0.26113060  0.37401939    -0.41400
N1204       N  0.68494535  0.27467930  0.17599159    -0.42900
H1205       H  0.69036380  0.29447661  0.25146241     0.13300
H1206       H  0.69751583  0.24149370  0.29895481     0.09800
H1207       H  0.71586990  0.23594356  0.23959234     0.10900
H1208       H  0.66694714  0.22034830  0.18165482     0.16700
C1209       C  0.79517902  0.32709306  0.23281130    -0.01500
C1210       C  0.78041834  0.33227656  0.22199371     0.07100
C1211       C  0.77831837  0.33635829  0.18753366    -0.07500
C1212       C  0.79024569  0.33424724  0.16352525     0.04500
C1213       C  0.80492056  0.32872588  0.17425636    -0.14700
C1214       C  0.80731739  0.32572824  0.20916479    -0.08100
C1215       C  0.76676909  0.33230447  0.24552170     0.05400
C1216       C  0.76747800  0.34053154  0.27659153    -0.09200
C1217       C  0.75514493  0.33990311  0.30016577     0.00400
C1218       C  0.74170278  0.33122017  0.29233977     0.00300
C1219       C  0.74084355  0.32340954  0.26090343    -0.12700
C1220       C  0.75320955  0.32372465  0.23777485     0.00800
C1221       C  0.75637973  0.34859471  0.33156112     0.40100
C1222       C  0.75185441  0.31456564  0.20696269     0.36700
C1223       C  0.79787362  0.32188270  0.26737175     0.36400
C1224       C  0.78685184  0.33734296  0.12806644     0.37200
N1225       N  0.75737823  0.35564560  0.35664049    -0.43600
N1226       N  0.75067989  0.30726389  0.18226540    -0.44100
N1227       N  0.78398856  0.33970611  0.09965875    -0.41400
N1228       N  0.80002386  0.31762899  0.29500412    -0.42900
H1229       H  0.81841469  0.32124392  0.21775365     0.13300
H1230       H  0.76709099  0.34054463  0.17910061     0.09800
H1231       H  0.77772038  0.34733134  0.28252417     0.10900
H1232       H  0.73065412  0.31653683  0.25483707     0.16700
C1233       C  0.64806219  0.36259420  0.38611554    -0.01500
C1234       C  0.65252758  0.37601290  0.40413448     0.07100
C1235       C  0.66832683  0.37894626  0.41017010    -0.07500
C1236       C  0.67975734  0.36871766  0.39822894     0.04500
C1237       C  0.67533435  0.35531577  0.37971431    -0.14700
C1238       C  0.65943469  0.35246902  0.37383448    -0.08100
C1239       C  0.64086883  0.38726686  0.41646851     0.05400
C1240       C  0.63796692  0.38842067  0.45163579    -0.09200
C1241       C  0.62666251  0.39865913  0.46412060     0.00400
C1242       C  0.61835988  0.40816115  0.44112456     0.00300
C1243       C  0.62158234  0.40719512  0.40599293    -0.12700
C1244       C  0.63259439  0.39673065  0.39351243     0.00800
C1245       C  0.62400563  0.39934156  0.50051629     0.40100
C1246       C  0.63506656  0.39574652  0.35705201     0.36700
C1247       C  0.63187113  0.35877780  0.38071774     0.36400
C1248       C  0.69583802  0.37237319  0.40525045     0.37200
N1249       N  0.62185367  0.39987801  0.52968915    -0.43600
N1250       N  0.63694910  0.39482866  0.32783557    -0.44100
N1251       N  0.70871995  0.37531526  0.41096512    -0.41400
N1252       N  0.61890010  0.35571956  0.37644220    -0.42900
H1253       H  0.65580375  0.34210825  0.36035370     0.13300
H1254       H  0.67170548  0.38927775  0.42408269     0.09800
H1255       H  0.64438643  0.38113653  0.46925065     0.10900
H1256       H  0.61515584  0.41432123  0.38807921     0.16700
C1257       C  0.67889663  0.76475393  0.22649899    -0.01500
C1258       C  0.68382928  0.75001862  0.21492734     0.07100
C1259       C  0.68912641  0.74840940  0.18124100    -0.07500
C1260       C  0.69002854  0.76124618  0.15942093     0.04500
C1261       C  0.68551524  0.77612145  0.17126651    -0.14700
C1262       C  0.67965590  0.77761644  0.20458113    -0.08100
C1263       C  0.68364460  0.73614234  0.23753339     0.05400
C1264       C  0.66935926  0.73049520  0.24965034    -0.09200
C1265       C  0.66873032  0.71773313  0.27181321     0.00400
C1266       C  0.68266317  0.71038533  0.28241033     0.00300
C1267       C  0.69689510  0.71567532  0.26902607    -0.12700
C1268       C  0.69748824  0.72845722  0.24692157     0.00800
C1269       C  0.65359158  0.71243679  0.28293336     0.40100
C1270       C  0.71251955  0.73394131  0.23559686     0.36700
C1271       C  0.67371666  0.76710078  0.26121723     0.36400
C1272       C  0.69529346  0.75868626  0.12478158     0.37200
N1273       N  0.64143958  0.70819393  0.29170832    -0.43600
N1274       N  0.72458434  0.73833550  0.22662538    -0.44100
N1275       N  0.69948611  0.75657191  0.09704763    -0.41400
N1276       N  0.66961735  0.76901672  0.28907857    -0.42900
H1277       H  0.67619250  0.78896174  0.21394334     0.13300
H1278       H  0.69263924  0.73706006  0.17203237     0.09800
H1279       H  0.65868697  0.73614519  0.24190611     0.10900
H1280       H  0.70765746  0.71024095  0.27690680     0.16700
C1281       C  0.69037168  0.76842479  0.48346932    -0.01500
C1282       C  0.67798095  0.75789172  0.48830315     0.07100
C1283       C  0.66685514  0.76079027  0.01395369    -0.07500
C1284       C  0.66834013  0.77363476  0.03556331     0.04500
C1285       C  0.68123289  0.78382306  0.03185387    -0.14700
C1286       C  0.69199343  0.78117097  0.50529459    -0.08100
C1287       C  0.67734522  0.74301849  0.46943748     0.05400
C1288       C  0.68971843  0.73263506  0.47349829    -0.09200
C1289       C  0.69041924  0.71897096  0.45452828     0.00400
C1290       C  0.67826703  0.71523533  0.43173179     0.00300
C1291       C  0.66537179  0.72514781  0.42914804    -0.12700
C1292       C  0.66492084  0.73912203  0.44752556     0.00800
C1293       C  0.70393012  0.70919038  0.45852119     0.40100
C1294       C  0.65218247  0.74972680  0.44195348     0.36700
C1295       C  0.70165281  0.76624814  0.45649273     0.36400
C1296       C  0.65691145  0.77538848  0.06239408     0.37200
N1297       N  0.71490881  0.70157843  0.46177400    -0.43600
N1298       N  0.64206066  0.75833757  0.43750103    -0.44100
N1299       N  0.64768758  0.77668283  0.08378815    -0.41400
N1300       N  0.71064552  0.76445153  0.43481047    -0.42900
H1301       H  0.70186338  0.78890792  0.50203823     0.13300
H1302       H  0.65739977  0.75260950  0.01790640     0.09800
H1303       H  0.69913869  0.73547972  0.49093793     0.10900
H1304       H  0.65609692  0.72242245  0.41127157     0.16700
C1305       C  0.73065783  0.66397828  0.47943280    -0.01500
C1306       C  0.74535092  0.65957716  0.46635641     0.07100
C1307       C  0.74646526  0.65506071  0.43188377    -0.07500
C1308       C  0.73375823  0.65656366  0.40974093     0.04500
C1309       C  0.71942041  0.66209067  0.42232316    -0.14700
C1310       C  0.71782811  0.66491065  0.45751198    -0.08100
C1311       C  0.75986386  0.66113725  0.48704146     0.05400
C1312       C  0.76075556  0.65420928  0.01950846    -0.09200
C1313       C  0.77371004  0.65679206  0.04062407     0.00400
C1314       C  0.78617837  0.66599499  0.02874620     0.00300
C1315       C  0.78543171  0.67241517  0.99587947    -0.12700
C1316       C  0.77244144  0.67034321  0.47539975     0.00800
C1317       C  0.77398579  0.64978337  0.07410267     0.40100
C1318       C  0.77190909  0.67862940  0.44332669     0.36700
C1319       C  0.72847494  0.66888431  0.01464609     0.36400
C1320       C  0.73577695  0.65251141  0.37422840     0.37200
N1321       N  0.77420608  0.64420062  0.10098610    -0.43600
N1322       N  0.77153461  0.68528050  0.41765729    -0.44100
N1323       N  0.73735396  0.64923692  0.34575514    -0.41400
N1324       N  0.72683252  0.67270921  0.04277438    -0.42900
H1325       H  0.70680819  0.66900436  0.46754520     0.13300
H1326       H  0.75752785  0.65109941  0.42185114     0.09800
H1327       H  0.75132769  0.64696572  0.02857968     0.10900
H1328       H  0.79484739  0.67967678  0.98674648     0.16700
C1329       C  0.60084758  0.52903804  0.08333800    -0.01500
C1330       C  0.59706609  0.51334885  0.08953056     0.07100
C1331       C  0.59031761  0.50924019  0.12090977    -0.07500
C1332       C  0.58632067  0.52053061  0.14504731     0.04500
C1333       C  0.58904172  0.53640945  0.13788605    -0.14700
C1334       C  0.59673806  0.54039861  0.10732928    -0.08100
C1335       C  0.59869443  0.50104926  0.06310519     0.05400
C1336       C  0.60688092  0.48744147  0.07127055    -0.09200
C1337       C  0.60599318  0.47428394  0.05026750     0.00400
C1338       C  0.59713340  0.47479698  0.01989823     0.00300
C1339       C  0.58987787  0.48875514  0.01060322    -0.12700
C1340       C  0.59022429  0.50166702  0.03223564     0.00800
C1341       C  0.61382114  0.46031756  0.06117093     0.40100
C1342       C  0.58043002  0.51472438  0.02377782     0.36700
C1343       C  0.60869746  0.53381098  0.05241562     0.36400
C1344       C  0.57878518  0.51538598  0.17605096     0.37200
N1345       N  0.62004278  0.44912747  0.07011058    -0.43600
N1346       N  0.57249906  0.52511577  0.01695911    -0.44100
N1347       N  0.57274030  0.51120443  0.20084585    -0.41400
N1348       N  0.61492016  0.53771368  0.02761245    -0.42900
H1349       H  0.59913625  0.55246113  0.10159514     0.13300
H1350       H  0.58750206  0.49719666  0.12593333     0.09800
H1351       H  0.61329379  0.48684682  0.09502385     0.10900
H1352       H  0.58281412  0.48920767  0.98773281     0.16700
C1353       C  0.62159632  0.59785491  0.28392758    -0.01500
C1354       C  0.62479707  0.61343114  0.27573886     0.07100
C1355       C  0.61657811  0.62060187  0.24917109    -0.07500
C1356       C  0.60509045  0.61256220  0.23099517     0.04500
C1357       C  0.60200755  0.59679954  0.23865739    -0.14700
C1358       C  0.61043221  0.58963893  0.26517685    -0.08100
C1359       C  0.63576814  0.62293414  0.29610673     0.05400
C1360       C  0.65186124  0.62086420  0.29214072    -0.09200
C1361       C  0.66242757  0.63089179  0.30833615     0.00400
C1362       C  0.65680965  0.64316116  0.32907798     0.00300
C1363       C  0.64071322  0.64452136  0.33449350    -0.12700
C1364       C  0.63022716  0.63466929  0.31798475     0.00800
C1365       C  0.67887096  0.62834005  0.30305806     0.40100
C1366       C  0.61376583  0.63713754  0.32298965     0.36700
C1367       C  0.62896435  0.59035035  0.31262876     0.36400
C1368       C  0.59620583  0.62108648  0.20599843     0.37200
N1369       N  0.69204227  0.62625876  0.29884503    -0.43600
N1370       N  0.60056643  0.63916021  0.32677879    -0.44100
N1371       N  0.58899292  0.62801446  0.18627131    -0.41400
N1372       N  0.63471324  0.58434672  0.33583805    -0.42900
H1373       H  0.60805864  0.57766280  0.27192714     0.13300
H1374       H  0.61883529  0.63270688  0.24336673     0.09800
H1375       H  0.65613200  0.61172081  0.27557760     0.10900
H1376       H  0.63620838  0.65379153  0.35041512     0.16700
C1377       C  0.18770192  0.73492805  0.46387954    -0.01500
C1378       C  0.17956599  0.74854642  0.45457377     0.07100
C1379       C  0.17130450  0.74879803  0.42377079    -0.07500
C1380       C  0.17156978  0.73603616  0.40163533     0.04500
C1381       C  0.18020376  0.72259952  0.41032791    -0.14700
C1382       C  0.18804589  0.72215355  0.44169334    -0.08100
C1383       C  0.18155617  0.76263693  0.97495384     0.05400
C1384       C  0.19658968  0.76868042  0.97894780    -0.09200
C1385       C  0.19925523  0.78205869  0.99817511     0.00400
C1386       C  0.18664560  0.78983652  0.01382607     0.00300
C1387       C  0.17145530  0.78433223  0.00826606    -0.12700
C1388       C  0.16880914  0.77082735  0.98897472     0.00800
C1389       C  0.21506734  0.78764668  0.00079107     0.40100
C1390       C  0.15301624  0.76541356  0.98481414     0.36700
C1391       C  0.19650327  0.73338971  0.99581687     0.36400
C1392       C  0.16398941  0.73763715  0.36889159     0.37200
N1393       N  0.22776437  0.79205420  0.00272096    -0.43600
N1394       N  0.14031086  0.76120930  0.98144981    -0.44100
N1395       N  0.15802362  0.73891660  0.34255303    -0.41400
N1396       N  0.20333589  0.73268632  0.02122382    -0.42900
H1397       H  0.19464509  0.71191847  0.44864053     0.13300
H1398       H  0.16533146  0.75931455  0.41611454     0.09800
H1399       H  0.20622518  0.76322687  0.46629081     0.10900
H1400       H  0.16167056  0.79028079  0.01998697     0.16700
C1401       C  0.20426996  0.77306830  0.19312562    -0.01500
C1402       C  0.18974331  0.76800869  0.20594540     0.07100
C1403       C  0.17630570  0.77644420  0.19777271    -0.07500
C1404       C  0.17705371  0.78934454  0.17607266     0.04500
C1405       C  0.19152338  0.79402624  0.16208149    -0.14700
C1406       C  0.20504015  0.78598543  0.17150390    -0.08100
C1407       C  0.18839081  0.75411028  0.22830675     0.05400
C1408       C  0.19654209  0.75390784  0.25926741    -0.09200
C1409       C  0.19612424  0.74090145  0.28058901     0.00400
C1410       C  0.18717511  0.72773765  0.27126389     0.00300
C1411       C  0.17859453  0.72813941  0.24079147    -0.12700
C1412       C  0.17922222  0.74111990  0.21920896     0.00800
C1413       C  0.20478617  0.74162094  0.31216791     0.40100
C1414       C  0.17079917  0.74060249  0.18734021     0.36700
C1415       C  0.21849875  0.76486276  0.20065778     0.36400
C1416       C  0.16281441  0.79764299  0.16903847     0.37200
N1417       N  0.21176425  0.74220986  0.33740620    -0.43600
N1418       N  0.16404107  0.74017496  0.16180459    -0.44100
N1419       N  0.15143458  0.80434348  0.16343259    -0.41400
N1420       N  0.22993646  0.75835621  0.20674353    -0.42900
H1421       H  0.21619675  0.78941443  0.16090809     0.13300
H1422       H  0.16518309  0.77289105  0.20831701     0.09800
H1423       H  0.20332516  0.76396608  0.26673331     0.10900
H1424       H  0.17168153  0.71815425  0.23338933     0.16700
C1425       C  0.98423172  0.55891904  0.09775678    -0.01500
C1426       C  0.99499923  0.57129861  0.09899390     0.07100
C1427       C  0.99213268  0.58387686  0.12070296    -0.07500
C1428       C  0.97949268  0.58374648  0.14316892     0.04500
C1429       C  0.96930524  0.57076147  0.14395110    -0.14700
C1430       C  0.97154298  0.55872502  0.12022378    -0.08100
C1431       C  0.00992829  0.57095523  0.08000231     0.05400
C1432       C  0.01345645  0.58303927  0.05717748    -0.09200
C1433       C  0.02761516  0.58323740  0.03941461     0.00400
C1434       C  0.03837428  0.57108661  0.04425215     0.00300
C1435       C  0.03501222  0.55924607  0.06765449    -0.12700
C1436       C  0.02108200  0.55925640  0.08603924     0.00800
C1437       C  0.03067137  0.59586159  0.51495130     0.40100
C1438       C  0.01871225  0.54740098  0.11162675     0.36700
C1439       C  0.98621852  0.54606367  0.07445217     0.36400
C1440       C  0.97807644  0.59667848  0.16648653     0.37200
N1441       N  0.03299061  0.60565592  0.49535268    -0.43600
N1442       N  0.01679226  0.53791073  0.13212940    -0.44100
N1443       N  0.97709697  0.60705029  0.18517853    -0.41400
N1444       N  0.98787414  0.53567785  0.05603569    -0.42900
H1445       H  0.96372501  0.54884347  0.12006836     0.13300
H1446       H  0.00030674  0.59348620  0.12139987     0.09800
H1447       H  0.00504927  0.59221011  0.05295841     0.10900
H1448       H  0.04335001  0.54996399  0.07164525     0.16700
C1449       C  0.98908342  0.57467641  0.34511904    -0.01500
C1450       C  0.00396547  0.57048159  0.33284783     0.07100
C1451       C  0.00581327  0.56656502  0.29834672    -0.07500
C1452       C  0.99306347  0.56642878  0.27619823     0.04500
C1453       C  0.97806838  0.57018841  0.28866044    -0.14700
C1454       C  0.97630678  0.57464151  0.32290781    -0.08100
C1455       C  0.01769153  0.56958560  0.35569873     0.05400
C1456       C  0.02446718  0.55505098  0.36204938    -0.09200
C1457       C  0.03719297  0.55357974  0.38422357     0.00400
C1458       C  0.04336678  0.56690389  0.40047902     0.00300
C1459       C  0.03678444  0.58149172  0.39308632    -0.12700
C1460       C  0.02414562  0.58292601  0.37089008     0.00800
C1461       C  0.04341983  0.53825411  0.39001098     0.40100
C1462       C  0.01813938  0.59824245  0.36381604     0.36700
C1463       C  0.98652334  0.57831755  0.38069284     0.36400
C1464       C  0.99575669  0.56268965  0.24065960     0.37200
N1465       N  0.04837052  0.52593279  0.39447510    -0.43600
N1466       N  0.01337951  0.61054417  0.35824782    -0.44100
N1467       N  0.99788958  0.55974771  0.21217340    -0.41400
N1468       N  0.98448439  0.58122723  0.40921812    -0.42900
H1469       H  0.96482027  0.57745971  0.33268834     0.13300
H1470       H  0.01726796  0.56352059  0.28876387     0.09800
H1471       H  0.01962558  0.54479453  0.35002215     0.10900
H1472       H  0.04139046  0.59188492  0.40497211     0.16700
C1473       C  0.12330420  0.60582762  0.39263410    -0.01500
C1474       C  0.12893242  0.61832507  0.41237163     0.07100
C1475       C  0.12493585  0.61924707  0.44706873    -0.07500
C1476       C  0.11538105  0.60803987  0.46217810     0.04500
C1477       C  0.10897472  0.59601858  0.44201813    -0.14700
C1478       C  0.11325474  0.59491032  0.40741181    -0.08100
C1479       C  0.13911858  0.63050132  0.39748176     0.05400
C1480       C  0.13357425  0.63950904  0.37026363    -0.09200
C1481       C  0.14268416  0.65134723  0.35601293     0.00400
C1482       C  0.15764529  0.65449678  0.36946948     0.00300
C1483       C  0.16316629  0.64533757  0.39662978    -0.12700
C1484       C  0.15410462  0.63342460  0.41055584     0.00800
C1485       C  0.13628819  0.65998946  0.32774655     0.40100
C1486       C  0.16051671  0.62416396  0.43788285     0.36700
C1487       C  0.12810736  0.60372378  0.35755494     0.36400
C1488       C  0.11306870  0.60872257  0.49870164     0.37200
N1489       N  0.13115101  0.66686031  0.30501109    -0.43600
N1490       N  0.16552158  0.61670477  0.45984789    -0.44100
N1491       N  0.11142687  0.60910964  0.52804372    -0.41400
N1492       N  0.13212061  0.60207094  0.32954904    -0.42900
H1493       H  0.10867033  0.58558582  0.39178684     0.13300
H1494       H  0.12945363  0.62867594  0.46249549     0.09800
H1495       H  0.12199272  0.63732913  0.36024778     0.10900
H1496       H  0.17465222  0.64745411  0.40715800     0.16700
C1497       C  0.34642807  0.73250484  0.54428353    -0.01500
C1498       C  0.33844706  0.73472960  0.51331166     0.07100
C1499       C  0.32903027  0.72280113  0.50035264    -0.07500
C1500       C  0.32608484  0.70928218  0.01909873     0.04500
C1501       C  0.33340617  0.70730186  0.05103646    -0.14700
C1502       C  0.34402383  0.71882115  0.56289805    -0.08100
C1503       C  0.33875191  0.74969423  0.49479913     0.05400
C1504       C  0.35239867  0.75447564  0.47817904    -0.09200
C1505       C  0.35228226  0.76733322  0.45624018     0.00400
C1506       C  0.33824807  0.77551082  0.45068608     0.00300
C1507       C  0.32487379  0.77121575  0.46907104    -0.12700
C1508       C  0.32504524  0.75849006  0.49110302     0.00800
C1509       C  0.36640272  0.77109539  0.43800310     0.40100
C1510       C  0.31092788  0.75440338  0.50912591     0.36700
C1511       C  0.35638168  0.74443518  0.55828469     0.36400
C1512       C  0.31595615  0.69762042  0.00469605     0.37200
N1513       N  0.37774767  0.77404964  0.42340135    -0.43600
N1514       N  0.29943704  0.75125102  0.02407327    -0.44100
N1515       N  0.30784634  0.68830837  0.99296032    -0.41400
N1516       N  0.36434984  0.75402764  0.56939836    -0.42900
H1517       H  0.34985878  0.71722643  0.08677565     0.13300
H1518       H  0.32320578  0.72437890  0.47605040     0.09800
H1519       H  0.36295645  0.74771745  0.48111466     0.10900
H1520       H  0.31409005  0.77755854  0.46547523     0.16700
C1521       C  0.34339322  0.72383115  0.22191652    -0.01500
C1522       C  0.33085222  0.72904461  0.24214993     0.07100
C1523       C  0.31670476  0.72091565  0.24167598    -0.07500
C1524       C  0.31474796  0.70802982  0.22039455     0.04500
C1525       C  0.32730062  0.70285431  0.20008483    -0.14700
C1526       C  0.34165581  0.71054230  0.20178236    -0.08100
C1527       C  0.33192067  0.74337421  0.26278221     0.05400
C1528       C  0.32258314  0.75609540  0.25392675    -0.09200
C1529       C  0.32275039  0.76969126  0.27352917     0.00400
C1530       C  0.33240108  0.77061695  0.30260805     0.00300
C1531       C  0.34200794  0.75795707  0.31089601    -0.12700
C1532       C  0.34173611  0.74435712  0.29144579     0.00800
C1533       C  0.31323629  0.78256736  0.26267590     0.40100
C1534       C  0.35111748  0.73134626  0.30220237     0.36700
C1535       C  0.35761283  0.73267906  0.21900121     0.36400
C1536       C  0.29966017  0.70060978  0.21917953     0.37200
N1537       N  0.30563048  0.79286688  0.25373571    -0.43600
N1538       N  0.35860399  0.72089781  0.31078962    -0.44100
N1539       N  0.28752383  0.69478468  0.21806720    -0.41400
N1540       N  0.36893873  0.73985436  0.21622560    -0.42900
H1541       H  0.35113344  0.70688799  0.18536385     0.13300
H1542       H  0.30706810  0.72494922  0.25712391     0.09800
H1543       H  0.31513879  0.75536356  0.23165180     0.10900
H1544       H  0.34938207  0.75847617  0.33323695     0.16700
C1545       C  0.25457673  0.66481758  0.17785215    -0.01500
C1546       C  0.25555695  0.65635219  0.20865677     0.07100
C1547       C  0.26876119  0.64729864  0.21491794    -0.07500
C1548       C  0.28150168  0.64764225  0.19263997     0.04500
C1549       C  0.28113495  0.65725732  0.16325910    -0.14700
C1550       C  0.26729658  0.66516573  0.15545135    -0.08100
C1551       C  0.24367413  0.65814338  0.23597196     0.05400
C1552       C  0.22831485  0.65342337  0.22984852    -0.09200
C1553       C  0.21640558  0.65714211  0.25292383     0.00400
C1554       C  0.21979397  0.66605885  0.28242274     0.00300
C1555       C  0.23537996  0.66951665  0.28993640    -0.12700
C1556       C  0.24729630  0.66559421  0.26712864     0.00800
C1557       C  0.20087785  0.65165436  0.24558541     0.40100
C1558       C  0.26301814  0.67013379  0.27552919     0.36700
C1559       C  0.24110306  0.67413679  0.16984831     0.36400
C1560       C  0.29503570  0.63862911  0.20172291     0.37200
N1561       N  0.18847516  0.64711302  0.23979786    -0.43600
N1562       N  0.27560266  0.67368630  0.28258647    -0.44100
N1563       N  0.30592917  0.63147609  0.20899743    -0.41400
N1564       N  0.23028701  0.68156519  0.16339584    -0.42900
H1565       H  0.26673159  0.67249184  0.13291700     0.13300
H1566       H  0.26940505  0.64050425  0.23828544     0.09800
H1567       H  0.22557679  0.64721873  0.20652263     0.10900
H1568       H  0.23821337  0.67607166  0.31273530     0.16700
C1569       C  0.49173468  0.57954918  0.02395602    -0.01500
C1570       C  0.49282345  0.57184049  0.05555557     0.07100
C1571       C  0.47988884  0.56367058  0.06829072    -0.07500
C1572       C  0.46607769  0.56276236  0.04944411     0.04500
C1573       C  0.46516465  0.57016488  0.01742275    -0.14700
C1574       C  0.47793658  0.57874746  0.00533609    -0.08100
C1575       C  0.50728951  0.57229902  0.07591996     0.05400
C1576       C  0.51246322  0.58656141  0.08903218    -0.09200
C1577       C  0.52558518  0.58733794  0.11010482     0.00400
C1578       C  0.53349980  0.57357032  0.11888327     0.00300
C1579       C  0.52859381  0.55939108  0.10471036    -0.12700
C1580       C  0.51573759  0.55868570  0.08301586     0.00800
C1581       C  0.53018608  0.60226025  0.12349860     0.40100
C1582       C  0.51165062  0.54395458  0.06777130     0.36700
C1583       C  0.50482910  0.58772891  0.00934934     0.36400
C1584       C  0.45291601  0.55464443  0.06390480     0.37200
N1585       N  0.53388169  0.61425555  0.13408449    -0.43600
N1586       N  0.50851040  0.53216148  0.05536272    -0.44100
N1587       N  0.44256596  0.54777713  0.57483755    -0.41400
N1588       N  0.51530370  0.59426830  0.99752458    -0.42900
H1589       H  0.47739018  0.58430221  0.98049113     0.13300
H1590       H  0.48062189  0.55799976  0.09293569     0.09800
H1591       H  0.50602639  0.59707199  0.08330291     0.10900
H1592       H  0.53480314  0.54877886  0.11072293     0.16700
C1593       C  0.49579763  0.57262695  0.36860168    -0.01500
C1594       C  0.49403173  0.57470117  0.33316944     0.07100
C1595       C  0.47906817  0.57559094  0.31900252    -0.07500
C1596       C  0.46585098  0.57392343  0.33967764     0.04500
C1597       C  0.46766114  0.57131885  0.37497606    -0.14700
C1598       C  0.48264302  0.57087033  0.38916577    -0.08100
C1599       C  0.50769916  0.57444865  0.31034293     0.05400
C1600       C  0.51551312  0.56034549  0.30572027    -0.09200
C1601       C  0.52848175  0.55934645  0.28428469     0.00400
C1602       C  0.53385573  0.57275446  0.26702217     0.00300
C1603       C  0.52608583  0.58694962  0.27227420    -0.12700
C1604       C  0.51307008  0.58786983  0.29365142     0.00800
C1605       C  0.53564569  0.54431821  0.27994384     0.40100
C1606       C  0.50547576  0.60266944  0.29827916     0.36700
C1607       C  0.51102277  0.57212085  0.38417967     0.36400
C1608       C  0.45068240  0.57373912  0.32389558     0.37200
N1609       N  0.54133372  0.53224705  0.27646232    -0.43600
N1610       N  0.49939509  0.61453446  0.30197128    -0.44100
N1611       N  0.43850052  0.57346693  0.31134224    -0.41400
N1612       N  0.52327102  0.57175454  0.39640622    -0.42900
H1613       H  0.48406750  0.56900047  0.41643176     0.13300
H1614       H  0.47775003  0.57700139  0.29154822     0.09800
H1615       H  0.51131589  0.55002197  0.31870807     0.10900
H1616       H  0.53004353  0.59736801  0.25930349     0.16700
C1617       C  0.37671141  0.58985707  0.02850853    -0.01500
C1618       C  0.37402694  0.60542897  0.01979598     0.07100
C1619       C  0.38149663  0.61192583  0.99138084    -0.07500
C1620       C  0.39216375  0.60325083  0.97229655     0.04500
C1621       C  0.39564461  0.58783843  0.98219624    -0.14700
C1622       C  0.38749014  0.58119927  0.00980629    -0.08100
C1623       C  0.36408823  0.61544875  0.04103779     0.05400
C1624       C  0.37111870  0.62443346  0.06649796    -0.09200
C1625       C  0.36242673  0.63510785  0.08542085     0.00400
C1626       C  0.34630364  0.63672825  0.07904445     0.00300
C1627       C  0.33923426  0.62726211  0.05420124    -0.12700
C1628       C  0.34802615  0.61672576  0.03507576     0.00800
C1629       C  0.37062288  0.64497308  0.10923437     0.40100
C1630       C  0.34037349  0.60765219  0.50877721     0.36700
C1631       C  0.36877930  0.58267855  0.05697035     0.36400
C1632       C  0.39951721  0.61066213  0.94337880     0.37200
N1633       N  0.37722131  0.65295997  0.12809853    -0.43600
N1634       N  0.33443438  0.60049869  0.48741445    -0.44100
N1635       N  0.40531978  0.61664301  0.92013911    -0.41400
N1636       N  0.36234958  0.57693958  0.07969939    -0.42900
H1637       H  0.38980169  0.56934705  0.01744465     0.13300
H1638       H  0.37919841  0.62389040  0.98457095     0.09800
H1639       H  0.38356794  0.62345658  0.07075603     0.10900
H1640       H  0.32688841  0.62841407  0.04897799     0.16700
C1641       C  0.21498458  0.26842326  0.22746263    -0.01500
C1642       C  0.20088057  0.26389087  0.21169938     0.07100
C1643       C  0.18735728  0.27244771  0.21857844    -0.07500
C1644       C  0.18745064  0.28475324  0.24192367     0.04500
C1645       C  0.20141745  0.28893717  0.25870705    -0.14700
C1646       C  0.21516658  0.28099994  0.25027881    -0.08100
C1647       C  0.19948221  0.24948793  0.19069666     0.05400
C1648       C  0.18880384  0.23800928  0.20100756    -0.09200
C1649       C  0.18702245  0.22416843  0.18253606     0.00400
C1650       C  0.19633307  0.22142755  0.15339691     0.00300
C1651       C  0.20680857  0.23303854  0.14277431    -0.12700
C1652       C  0.20823209  0.24705898  0.16063368     0.00800
C1653       C  0.17578756  0.21294261  0.19451872     0.40100
C1654       C  0.21828395  0.25894174  0.14676392     0.36700
C1655       C  0.22916531  0.25969846  0.22276502     0.36400
C1656       C  0.17291879  0.29257477  0.24881586     0.37200
N1657       N  0.16670594  0.20401232  0.20411688    -0.43600
N1658       N  0.22635650  0.26839972  0.13543015    -0.44100
N1659       N  0.16127728  0.29880060  0.25457254    -0.41400
N1660       N  0.24057299  0.25277183  0.21899810    -0.42900
H1661       H  0.22594334  0.28394891  0.26330211     0.13300
H1662       H  0.17646410  0.26911342  0.20642283     0.09800
H1663       H  0.18185389  0.23984846  0.22388399     0.10900
H1664       H  0.21377628  0.23128228  0.11990332     0.16700
C1665       C  0.18927150  0.26215051  0.45391353    -0.01500
C1666       C  0.19661665  0.24844860  0.44259114     0.07100
C1667       C  0.20369941  0.24816338  0.41036451    -0.07500
C1668       C  0.20386989  0.26142186  0.38967111     0.04500
C1669       C  0.19701259  0.27538689  0.40153347    -0.14700
C1670       C  0.18949389  0.27545476  0.43336811    -0.08100
C1671       C  0.19710624  0.23437012  0.46430979     0.05400
C1672       C  0.18350815  0.22561105  0.46859778    -0.09200
C1673       C  0.18356466  0.21289452  0.99152500     0.00400
C1674       C  0.19705104  0.20876879  0.01010150     0.00300
C1675       C  0.21037912  0.21738425  0.50441176    -0.12700
C1676       C  0.21067204  0.23015480  0.48222479     0.00800
C1677       C  0.16899125  0.20476948  0.99593913     0.40100
C1678       C  0.22462759  0.23947374  0.48009296     0.36700
C1679       C  0.18187834  0.26292392  0.48701005     0.36400
C1680       C  0.21071333  0.26018852  0.35601699     0.37200
N1681       N  0.15728170  0.19833658  0.99971427    -0.43600
N1682       N  0.23571010  0.24709575  0.47856727    -0.44100
N1683       N  0.21610350  0.25913562  0.32899035    -0.41400
N1684       N  0.17646111  0.26325977  0.01440064    -0.42900
H1685       H  0.18416256  0.28608709  0.44272502     0.13300
H1686       H  0.20910828  0.23751457  0.40137310     0.09800
H1687       H  0.17355759  0.22869829  0.95497920     0.10900
H1688       H  0.22072591  0.21458795  0.51905292     0.16700
C1689       C  0.03017778  0.42745123  0.10654993    -0.01500
C1690       C  0.01663564  0.43531136  0.11751333     0.07100
C1691       C  0.01688388  0.44334295  0.14863476    -0.07500
C1692       C  0.03043344  0.44404243  0.16836281     0.04500
C1693       C  0.04416019  0.43651659  0.15690957    -0.14700
C1694       C  0.04372057  0.42809063  0.12627378    -0.08100
C1695       C  0.00221786  0.43537042  0.09661990     0.05400
C1696       C  0.99518113  0.42117777  0.08819520    -0.09200
C1697       C  0.98272534  0.42056377  0.06529488     0.00400
C1698       C  0.97705993  0.43440770  0.05047998     0.00300
C1699       C  0.98327950  0.44868954  0.06105059    -0.12700
C1700       C  0.99578189  0.44928860  0.08385952     0.00800
C1701       C  0.97603775  0.40558499  0.05746567     0.40100
C1702       C  0.00226801  0.46428177  0.09228538     0.36700
C1703       C  0.03062364  0.41895490  0.07474685     0.36400
C1704       C  0.02963046  0.45216365  0.20062587     0.37200
N1705       N  0.97079976  0.39368123  0.55173984    -0.43600
N1706       N  0.00735088  0.47633868  0.09910506    -0.44100
N1707       N  0.02878876  0.45866068  0.22645794    -0.41400
N1708       N  0.03099991  0.41205925  0.04937565    -0.42900
H1709       H  0.05412340  0.42216401  0.11730718     0.13300
H1710       H  0.00638558  0.44908896  0.15758315     0.09800
H1711       H  0.99973051  0.41048057  0.09891018     0.10900
H1712       H  0.97892984  0.45940915  0.05006721     0.16700
C1713       C  0.00785832  0.41625663  0.37552311    -0.01500
C1714       C  0.01442459  0.42985147  0.36141577     0.07100
C1715       C  0.00682211  0.44408337  0.36597352    -0.07500
C1716       C  0.99308452  0.44503829  0.38500467     0.04500
C1717       C  0.98668817  0.43152007  0.40005042    -0.14700
C1718       C  0.99407906  0.41717807  0.39469561    -0.08100
C1719       C  0.02862983  0.42952522  0.33982778     0.05400
C1720       C  0.02806600  0.42152589  0.30873942    -0.09200
C1721       C  0.04043038  0.42232526  0.28561791     0.00400
C1722       C  0.05378910  0.43130606  0.29350542     0.00300
C1723       C  0.05445508  0.43916059  0.32489417    -0.12700
C1724       C  0.04204267  0.43822948  0.34815246     0.00800
C1725       C  0.03850871  0.41468550  0.25299073     0.40100
C1726       C  0.04328782  0.44622921  0.38045982     0.36700
C1727       C  0.01522965  0.40132167  0.37130259     0.36400
C1728       C  0.98557906  0.45999630  0.38762467     0.37200
N1729       N  0.03695093  0.40862150  0.22681855    -0.43600
N1730       N  0.04420828  0.45257579  0.40644826    -0.44100
N1731       N  0.97955077  0.47197244  0.38960415    -0.41400
N1732       N  0.02112783  0.38935157  0.36783184    -0.42900
H1733       H  0.98931816  0.40677396  0.40611711     0.13300
H1734       H  0.01154484  0.45443388  0.35425238     0.09800
H1735       H  0.01766358  0.41512141  0.30195391     0.10900
H1736       H  0.06459855  0.44606357  0.33115405     0.16700
C1737       C  0.10955569  0.52701238  0.09260154    -0.01500
C1738       C  0.10694357  0.51105941  0.08666451     0.07100
C1739       C  0.10168408  0.50632306  0.05431071    -0.07500
C1740       C  0.09800737  0.51718387  0.02894830     0.04500
C1741       C  0.09917485  0.53324746  0.03602559    -0.14700
C1742       C  0.10563024  0.53791941  0.06747020    -0.08100
C1743       C  0.10740781  0.49937633  0.11481234     0.05400
C1744       C  0.09799000  0.50184594  0.14370724    -0.09200
C1745       C  0.09558159  0.49009400  0.16787009     0.00400
C1746       C  0.10253673  0.47538997  0.16316622     0.00300
C1747       C  0.11268053  0.47320348  0.13535839    -0.12700
C1748       C  0.11523656  0.48505079  0.11140961     0.00800
C1749       C  0.08471071  0.49303368  0.19529695     0.40100
C1750       C  0.12556224  0.48205937  0.08302009     0.36700
C1751       C  0.11578716  0.53249198  0.12468309     0.36400
C1752       C  0.09188410  0.51134617  0.49648593     0.37200
N1753       N  0.07594516  0.49537565  0.21717684    -0.43600
N1754       N  0.13378559  0.47964137  0.06018739    -0.44100
N1755       N  0.08722567  0.50667230  0.47072473    -0.41400
N1756       N  0.12074074  0.53683599  0.15045975    -0.42900
H1757       H  0.10697770  0.55015076  0.07313087     0.13300
H1758       H  0.09958940  0.49414076  0.04942814     0.09800
H1759       H  0.09169933  0.51265204  0.14632253     0.10900
H1760       H  0.11816760  0.46201712  0.13160568     0.16700
C1761       C  0.14197366  0.40090598  0.27555695    -0.01500
C1762       C  0.14091573  0.38501641  0.26733859     0.07100
C1763       C  0.12919814  0.38002287  0.24496858    -0.07500
C1764       C  0.11841484  0.39055565  0.23123695     0.04500
C1765       C  0.11921907  0.40650854  0.24006589    -0.14700
C1766       C  0.13121401  0.41145395  0.26198334    -0.08100
C1767       C  0.15169942  0.37340040  0.28255038     0.05400
C1768       C  0.14668665  0.36449583  0.31047985    -0.09200
C1769       C  0.15652404  0.35346850  0.32570003     0.00400
C1770       C  0.17175374  0.35108838  0.31272092     0.00300
C1771       C  0.17673125  0.36021963  0.28489632    -0.12700
C1772       C  0.16688908  0.37125547  0.26986161    -0.05600
C1773       C  0.15065283  0.34495519  0.35475510     0.40100
C1774       C  0.17252335  0.38010182  0.24105930     0.36700
C1775       C  0.15373749  0.40655452  0.29873990     0.36400
C1776       C  0.10632451  0.38448123  0.20938830     0.37200
N1777       N  0.14591780  0.33818254  0.37810226    -0.43600
N1778       N  0.17702128  0.38719890  0.21796162    -0.44100
N1779       N  0.09662445  0.37957442  0.19194885    -0.41400
N1780       N  0.16315803  0.41105141  0.31739128    -0.42900
H1781       H  0.13205874  0.42360520  0.26909504     0.13300
H1782       H  0.12835350  0.36778296  0.23858824     0.09800
H1783       H  0.13505241  0.36623158  0.32051178     0.10900
H1784       H  0.18829888  0.35860459  0.27441760     0.16700
C1785       C  0.51535366  0.43593969  0.28117794    -0.01500
C1786       C  0.51721815  0.42679538  0.31070603     0.07100
C1787       C  0.50530204  0.41647167  0.32030681    -0.07500
C1788       C  0.49148949  0.41548948  0.30149874     0.04500
C1789       C  0.48918232  0.42557431  0.27354643    -0.14700
C1790       C  0.50138145  0.43539724  0.26324294    -0.08100
C1791       C  0.53101469  0.42861701  0.33304917     0.05400
C1792       C  0.53445841  0.44341185  0.34607068    -0.09200
C1793       C  0.54660890  0.44560629  0.36921079     0.00400
C1794       C  0.55537538  0.43270945  0.38034909     0.00300
C1795       C  0.55222674  0.41797588  0.36652115    -0.12700
C1796       C  0.54023121  0.41585963  0.34287427     0.00800
C1797       C  0.54907032  0.46103702  0.38265798     0.40100
C1798       C  0.53751217  0.40051376  0.32922087     0.36700
C1799       C  0.52760091  0.44595033  0.26866129     0.36400
C1800       C  0.47996021  0.40419431  0.31171297     0.37200
N1801       N  0.55104641  0.47339335  0.39346164    -0.43600
N1802       N  0.53520352  0.38824977  0.31823331    -0.44100
N1803       N  0.47086546  0.39495724  0.31972040    -0.41400
N1804       N  0.53737915  0.45398799  0.25855910    -0.42900
H1805       H  0.49999907  0.44281710  0.24099175     0.13300
H1806       H  0.50667516  0.40935142  0.34298519     0.09800
H1807       H  0.52727735  0.45324038  0.33894265     0.10900
H1808       H  0.55893227  0.40799578  0.37480686     0.16700
C1809       C  0.52580321  0.41845254  0.06608582    -0.01500
C1810       C  0.51295658  0.42800580  0.05847330     0.07100
C1811       C  0.51367519  0.43804393  0.03046483    -0.07500
C1812       C  0.52719695  0.43917718  0.01076906     0.04500
C1813       C  0.54049940  0.43032785  0.01962261    -0.14700
C1814       C  0.53943726  0.41966738  0.04664443    -0.08100
C1815       C  0.49941138  0.42902387  0.08166406     0.05400
C1816       C  0.49785300  0.44239118  0.10176748    -0.09200
C1817       C  0.48620399  0.44345590  0.12657980     0.00400
C1818       C  0.47580700  0.43093035  0.13143289     0.00300
C1819       C  0.47705455  0.41774755  0.11041347    -0.12700
C1820       C  0.48866066  0.41679083  0.08534674     0.00800
C1821       C  0.48603513  0.45698930  0.14838409     0.40100
C1822       C  0.48937341  0.40322294  0.06372896     0.36700
C1823       C  0.52548075  0.40787553  0.09468364     0.36400
C1824       C  0.52693055  0.44948650  0.48161674     0.37200
N1825       N  0.48600312  0.46782185  0.16589099    -0.43600
N1826       N  0.48994781  0.39240547  0.04622400    -0.44100
N1827       N  0.52652766  0.45767664  0.45820106    -0.41400
N1828       N  0.52512359  0.39936681  0.11754277    -0.42900
H1829       H  0.54946249  0.41264967  0.05341365     0.13300
H1830       H  0.50369671  0.44526129  0.02442574     0.09800
H1831       H  0.50618500  0.45179922  0.09892226     0.10900
H1832       H  0.46910170  0.40809929  0.11393108     0.16700
C1833       C  0.42439240  0.49747339  0.38070649    -0.01500
C1834       C  0.41592857  0.49858481  0.34997866     0.07100
C1835       C  0.40644729  0.51154699  0.34425071    -0.07500
C1836       C  0.40649247  0.52403192  0.36716581     0.04500
C1837       C  0.41640622  0.52366774  0.39597260    -0.14700
C1838       C  0.42453093  0.50996329  0.40345324    -0.08100
C1839       C  0.41832303  0.48717366  0.32220479     0.05400
C1840       C  0.41323895  0.47188049  0.32674627    -0.09200
C1841       C  0.41753587  0.46024393  0.30368293     0.00400
C1842       C  0.42711424  0.46389036  0.27534621     0.00300
C1843       C  0.43132644  0.47944469  0.26965491    -0.12700
C1844       C  0.42709531  0.49106260  0.29291447     0.00800
C1845       C  0.41208805  0.44464730  0.30998780     0.40100
C1846       C  0.43272936  0.50669455  0.28750917     0.36700
C1847       C  0.43402348  0.48417703  0.38818850     0.36400
C1848       C  0.39655451  0.53714372  0.36006516     0.37200
N1849       N  0.40772538  0.43213746  0.31500177    -0.43600
N1850       N  0.43719633  0.51924415  0.28344073    -0.44100
N1851       N  0.38850231  0.54759751  0.35448471    -0.41400
N1852       N  0.44172799  0.47352866  0.39429796    -0.42900
H1853       H  0.43196844  0.50940417  0.42574995     0.13300
H1854       H  0.39957420  0.51219239  0.32109406     0.09800
H1855       H  0.40634300  0.46893085  0.34917493     0.10900
H1856       H  0.43868482  0.48242253  0.24800172     0.16700
C1857       C  0.34116010  0.22301333  0.44881005    -0.01500
C1858       C  0.32772469  0.23055594  0.46101564     0.07100
C1859       C  0.31302548  0.22471826  0.45195718    -0.07500
C1860       C  0.31155721  0.21186530  0.43016315     0.04500
C1861       C  0.32502454  0.20480904  0.41632149    -0.14700
C1862       C  0.33973042  0.21036316  0.42658074    -0.08100
C1863       C  0.32875161  0.24475114  0.48256993     0.05400
C1864       C  0.33613212  0.25807254  0.46951344    -0.09200
C1865       C  0.33780598  0.27139194  0.98844939     0.00400
C1866       C  0.33124624  0.27186154  0.02151330     0.00300
C1867       C  0.32412688  0.25843387  0.03468272    -0.12700
C1868       C  0.32333569  0.24475141  0.01562034     0.00800
C1869       C  0.34396635  0.28535167  0.47325714     0.40100
C1870       C  0.31615557  0.23126109  0.03088835     0.36700
C1871       C  0.35653915  0.22795951  0.45902259     0.36400
C1872       C  0.29608139  0.20648723  0.42210358     0.37200
N1873       N  0.34950081  0.29621053  0.46073979    -0.43600
N1874       N  0.31036641  0.22047117  0.04312962    -0.44100
N1875       N  0.28362389  0.20220059  0.41597554    -0.41400
N1876       N  0.36883114  0.23193916  0.46735767    -0.42900
H1877       H  0.35021197  0.20499754  0.41677707     0.13300
H1878       H  0.30266023  0.23040471  0.46146315     0.09800
H1879       H  0.34105662  0.25779322  0.44385538     0.10900
H1880       H  0.31919754  0.25857156  0.06032179     0.16700
C1881       C  0.32880649  0.26894825  0.22243222    -0.01500
C1882       C  0.33581387  0.25455599  0.21479171     0.07100
C1883       C  0.34285968  0.25232146  0.18294564    -0.07500
C1884       C  0.34268904  0.26401317  0.15830014     0.04500
C1885       C  0.33547448  0.27842604  0.16557816    -0.14700
C1886       C  0.32865960  0.28076542  0.19780603    -0.08100
C1887       C  0.33419256  0.24091917  0.23742912     0.05400
C1888       C  0.31939478  0.23430035  0.24097704    -0.09200
C1889       C  0.31734320  0.22035597  0.25857975     0.00400
C1890       C  0.33028200  0.21296197  0.27385260     0.00300
C1891       C  0.34513661  0.21957095  0.27008515    -0.12700
C1892       C  0.34719208  0.23339187  0.25178192     0.00800
C1893       C  0.30197913  0.21351196  0.25868129     0.40100
C1894       C  0.36270775  0.23960808  0.24794754     0.36700
C1895       C  0.32165645  0.27178781  0.25524632     0.36400
C1896       C  0.34896701  0.26032565  0.12499163     0.37200
N1897       N  0.28968731  0.20800067  0.25839335    -0.43600
N1898       N  0.37516538  0.24452667  0.24475994    -0.44100
N1899       N  0.35393682  0.25721767  0.09835333    -0.41400
N1900       N  0.31595768  0.27409059  0.28157423    -0.42900
H1901       H  0.32312066  0.29171908  0.20361067     0.13300
H1902       H  0.34786479  0.24114094  0.17678699     0.09800
H1903       H  0.30949726  0.23977032  0.22880553     0.10900
H1904       H  0.35514055  0.21399974  0.28161614     0.16700
C1905       C  0.26731421  0.32630545  0.01814146    -0.01500
C1906       C  0.26958851  0.33648440  0.48985955     0.07100
C1907       C  0.28388858  0.34427001  0.48717746    -0.07500
C1908       C  0.29633456  0.34091512  0.01012964     0.04500
C1909       C  0.29415007  0.33010350  0.03691898    -0.14700
C1910       C  0.27934847  0.32346485  0.04149223    -0.08100
C1911       C  0.25830379  0.33723144  0.46096842     0.05400
C1912       C  0.24318245  0.34279340  0.46667291    -0.09200
C1913       C  0.23164652  0.34137161  0.44151003     0.00400
C1914       C  0.23514512  0.33412776  0.40991556     0.00300
C1915       C  0.25061577  0.32980409  0.40326571    -0.12700
C1916       C  0.26214497  0.33129121  0.42836158     0.00800
C1917       C  0.21634567  0.34740085  0.44896600     0.40100
C1918       C  0.27761823  0.32574970  0.42065911     0.36700
C1919       C  0.25265700  0.31835393  0.02288989     0.36400
C1920       C  0.31039473  0.34973799  0.50629419     0.37200
N1921       N  0.20413176  0.35235382  0.45499599    -0.43600
N1922       N  0.29004731  0.32139943  0.41448987    -0.44100
N1923       N  0.32205852  0.35631012  0.50302601    -0.41400
N1924       N  0.24086849  0.31207233  0.02674397    -0.42900
H1925       H  0.27742639  0.31526311  0.06211304     0.13300
H1926       H  0.28591232  0.35204909  0.46579569     0.09800
H1927       H  0.24026961  0.34782039  0.49127052     0.10900
H1928       H  0.25356714  0.32440086  0.37909211     0.16700
C1929       C  0.36723321  0.36747008  0.14735442    -0.01500
C1930       C  0.38340022  0.36568253  0.14288650     0.07100
C1931       C  0.38904954  0.35278820  0.12489291    -0.07500
C1932       C  0.37881849  0.34168373  0.11134436     0.04500
C1933       C  0.36256654  0.34328292  0.11633331    -0.14700
C1934       C  0.35700191  0.35627966  0.13434760    -0.08100
C1935       C  0.39456591  0.37705110  0.15738649     0.05400
C1936       C  0.40388002  0.37264208  0.18510301    -0.09200
C1937       C  0.41425361  0.38318392  0.20018066     0.00400
C1938       C  0.41537161  0.39853712  0.18738324     0.00300
C1939       C  0.40594360  0.40284642  0.15963671    -0.12700
C1940       C  0.39574093  0.39225894  0.14446453     0.00800
C1941       C  0.42360351  0.37778609  0.22840378     0.40100
C1942       C  0.38691296  0.39714170  0.11502632     0.36700
C1943       C  0.36094673  0.38060683  0.16568921     0.36400
C1944       C  0.38540617  0.32858995  0.09341383     0.37200
N1945       N  0.43109121  0.37337869  0.25095396    -0.43600
N1946       N  0.37987783  0.40108178  0.09139469    -0.44100
N1947       N  0.39071758  0.31812107  0.07899564    -0.41400
N1948       N  0.35606542  0.39125002  0.18021526    -0.42900
H1949       H  0.34459671  0.35772057  0.13834330     0.13300
H1950       H  0.40150137  0.35141012  0.12145421     0.09800
H1951       H  0.40297673  0.36092321  0.19505996     0.10900
H1952       H  0.40675020  0.41447372  0.14913712     0.16700
In1953     In  0.33048468  0.30986837  0.58694555     1.36900
C1954       C  0.33037084  0.28641345  0.54331431     0.78100
O1955       O  0.34366910  0.29220041  0.61560214    -0.60400
O1956       O  0.32248142  0.30032386  0.63764943    -0.51300
C1957       C  0.35068117  0.33175614  0.60515854     0.70700
O1958       O  0.35334508  0.32224755  0.58122595    -0.46200
C1959       C  0.30695339  0.32453538  0.55744974     0.75400
O1960       O  0.34080908  0.29682967  0.54223801    -0.58000
O1961       O  0.30538268  0.31749513  0.58563839    -0.48100
O1962       O  0.32002290  0.28851223  0.56570073    -0.54400
C1963       C  0.33376026  0.29087303  0.63918548     0.85600
O1964       O  0.33742327  0.33029985  0.61881026    -0.56300
O1965       O  0.32070099  0.32481880  0.54609221    -0.59600
In1966     In  0.44886873  0.42981301  0.71796035     1.36900
C1967       C  0.47440466  0.42663230  0.75460285     0.78100
O1968       O  0.46228109  0.41806337  0.67672387    -0.60400
O1969       O  0.45825416  0.44237504  0.67229365    -0.51300
C1970       C  0.42666396  0.41000273  0.70086600     0.70700
O1971       O  0.43657344  0.40705827  0.72375898    -0.46200
C1972       C  0.43435967  0.45161369  0.75385967     0.75400
O1973       O  0.46384810  0.41639188  0.75474355    -0.58000
O1974       O  0.43912992  0.45398389  0.72375095    -0.48100
O1975       O  0.47142360  0.43841880  0.73680631    -0.54400
C1976       C  0.46490140  0.43042418  0.66046457     0.85600
O1977       O  0.42778922  0.42343668  0.68813503    -0.56300
O1978       O  0.43662038  0.43802922  0.76469105    -0.59600
In1979     In  0.08454214  0.43789662  0.71492710     1.36900
C1980       C  0.05914641  0.43730223  0.67669976     0.78100
O1981       O  0.06948485  0.42312318  0.74675484    -0.60400
O1982       O  0.07423712  0.44598096  0.76498329    -0.51300
C1983       C  0.10736091  0.41816944  0.72995338     0.70700
O1984       O  0.09768623  0.41570774  0.70622135    -0.46200
C1985       C  0.09768952  0.46177150  0.68346804     0.75400
O1986       O  0.06987803  0.42730510  0.67345295    -0.58000
O1987       O  0.09306049  0.46256742  0.71415659    -0.48100
O1988       O  0.06195377  0.44785496  0.69812813    -0.54400
C1989       C  0.06648116  0.43352667  0.76841467     0.85600
O1990       O  0.10575474  0.43115759  0.74462447    -0.56300
O1991       O  0.09674876  0.44843087  0.67024873    -0.59600
In1992     In  0.20129166  0.31587883  0.84650863     1.36900
C1993       C  0.19842603  0.29004559  0.88279915     0.78100
O1994       O  0.18925310  0.30200380  0.80691194    -0.60400
O1995       O  0.21337774  0.30652956  0.79949686    -0.51300
C1996       C  0.18239866  0.33887695  0.82715232     0.70700
O1997       O  0.17840787  0.32864031  0.84864393    -0.46200
C1998       C  0.22283752  0.32900116  0.88605326     0.75400
O1999       O  0.18852606  0.30091680  0.88485258    -0.58000
O2000       O  0.22554238  0.32513088  0.85539176    -0.48100
O2001       O  0.20967655  0.29274310  0.86301675    -0.54400
C2002       C  0.20121842  0.29968883  0.78891069     0.85600
O2003       O  0.19628887  0.33759154  0.81685616    -0.56300
O2004       O  0.20890238  0.32705289  0.89529826    -0.59600
In2005     In  0.43258457  0.56318607  0.94347651     1.36900
C2006       C  0.45464020  0.56823567  0.89804050     0.78100
O2007       O  0.44818822  0.57831083  0.47268885    -0.60400
O2008       O  0.44475163  0.55510039  0.49038923    -0.51300
C2009       C  0.40833413  0.57871001  0.46646669     0.70700
O2010       O  0.41632082  0.58335671  0.94126281    -0.46200
C2011       C  0.42096097  0.53794859  0.91520494     0.75400
O2012       O  0.44216880  0.57606219  0.89800086    -0.58000
O2013       O  0.42849040  0.53760152  0.94290693    -0.48100
O2014       O  0.45533964  0.55764803  0.92015953    -0.54400
C2015       C  0.45203281  0.56781378  0.49348407     0.85600
O2016       O  0.41270976  0.56595888  0.47900460    -0.56300
O2017       O  0.41866338  0.55135978  0.90336419    -0.59600
In2018     In  0.32175115  0.67307527  0.61987765     1.36900
C2019       C  0.32521182  0.69143176  0.67277330     0.78100
O2020       O  0.33839538  0.69031890  0.59831881    -0.60400
O2021       O  0.31677580  0.68707195  0.57289485    -0.51300
C2022       C  0.33702012  0.64912168  0.59509363     0.70700
O2023       O  0.34087472  0.65572023  0.62266815    -0.46200
C2024       C  0.29563248  0.66134473  0.64411475     0.75400
O2025       O  0.33514252  0.68105993  0.66566470    -0.58000
O2026       O  0.29574268  0.67056671  0.61888720    -0.48100
O2027       O  0.31355294  0.69201256  0.65332591    -0.54400
C2028       C  0.32955971  0.69437720  0.57430017     0.85600
O2029       O  0.32484806  0.65438648  0.58130439    -0.56300
O2030       O  0.30893887  0.65720374  0.65415209    -0.59600
In2031     In  0.07550642  0.56612444  0.97949537     1.36900
C2032       C  0.05241456  0.56972100  0.52237374     0.78100
O2033       O  0.05985801  0.57820945  0.94351535    -0.60400
O2034       O  0.06285748  0.55394857  0.93654630    -0.51300
C2035       C  0.09741929  0.58492768  0.95677916     0.70700
O2036       O  0.08930092  0.58787908  0.98294315    -0.46200
C2037       C  0.09193094  0.54524078  0.01376405     0.75400
O2038       O  0.06117082  0.58070661  0.01510423    -0.58000
O2039       O  0.08590081  0.54236063  0.98492805    -0.48100
O2040       O  0.05590455  0.55662280  0.00970890    -0.54400
C2041       C  0.05590400  0.56620938  0.92727176     0.85600
O2042       O  0.09448413  0.57204581  0.94267311    -0.56300
O2043       O  0.09032531  0.55910883  0.52293869    -0.59600
In2044     In  0.18607587  0.68952853  0.83514390     1.36900
C2045       C  0.18670954  0.71316054  0.79236835     0.78100
O2046       O  0.17168586  0.70600058  0.86453505    -0.60400
O2047       O  0.19458148  0.70126311  0.88301814    -0.51300
C2048       C  0.16784987  0.66688719  0.85671970     0.70700
O2049       O  0.16420052  0.67559498  0.83191109    -0.46200
C2050       C  0.20756869  0.67321662  0.80299738     0.75400
O2051       O  0.17552042  0.70350161  0.79244846    -0.58000
O2052       O  0.21011499  0.67950118  0.83180018    -0.48100
O2053       O  0.19760383  0.71005206  0.81283404    -0.54400
C2054       C  0.18222718  0.70925964  0.88579647     0.85600
O2055       O  0.18091683  0.66987278  0.87002580    -0.56300
O2056       O  0.19387993  0.67485668  0.79190497    -0.59600
In2057     In  0.56744313  0.57084382  0.69202625     1.36900
C2058       C  0.54600209  0.57296114  0.64442875     0.78100
O2059       O  0.58281273  0.56291946  0.64963991    -0.60400
O2060       O  0.57554282  0.54642821  0.68690846    -0.51300
C2061       C  0.58991056  0.58736069  0.72051571     0.70700
O2062       O  0.58206664  0.59235689  0.69545279    -0.46200
C2063       C  0.54680220  0.57193353  0.74171929     0.75400
O2064       O  0.55534415  0.58407766  0.65029139    -0.58000
O2065       O  0.55502227  0.56001574  0.73606868    -0.48100
O2066       O  0.54790397  0.56109003  0.66277012    -0.54400
C2067       C  0.58257726  0.54887355  0.65898440     0.85600
O2068       O  0.58640521  0.57377968  0.72990114    -0.56300
O2069       O  0.54983822  0.58341144  0.72280060    -0.59600
In2070     In  0.68364142  0.67950830  0.86367629     1.36900
C2071       C  0.67967278  0.70217068  0.90793311     0.78100
O2072       O  0.69235336  0.66697253  0.90967305    -0.60400
O2073       O  0.70851850  0.67223022  0.86999336    -0.51300
C2074       C  0.66677825  0.65545427  0.84313254     0.70700
O2075       O  0.66230739  0.66466071  0.86630806    -0.46200
C2076       C  0.68259659  0.69831788  0.80986302     0.75400
O2077       O  0.66870174  0.69288517  0.90075020    -0.58000
O2078       O  0.69437708  0.69001425  0.81634272    -0.48100
O2079       O  0.69230791  0.69973832  0.89244380    -0.54400
C2080       C  0.70633168  0.66682257  0.89970284     0.85600
O2081       O  0.68014941  0.65834327  0.83138562    -0.56300
O2082       O  0.67132791  0.69628012  0.82998113    -0.59600
In2083     In  0.70476299  0.31988568  0.85383896     1.36900
C2084       C  0.69857005  0.29510699  0.81698872     0.78100
O2085       O  0.71484471  0.32765791  0.80477995    -0.60400
O2086       O  0.72988542  0.32754470  0.84788705    -0.51300
C2087       C  0.68661089  0.34358445  0.86842619     0.70700
O2088       O  0.68263660  0.33277006  0.84849826    -0.46200
C2089       C  0.70231947  0.30477099  0.91220237     0.75400
O2090       O  0.69150205  0.30779778  0.81243369    -0.58000
O2091       O  0.71540684  0.30885347  0.90019970    -0.48100
O2092       O  0.70869775  0.29527479  0.84019432    -0.54400
C2093       C  0.72848177  0.32925377  0.81590994     0.85600
O2094       O  0.70049627  0.34283126  0.87891037    -0.56300
O2095       O  0.69070260  0.30930806  0.89537250    -0.59600
In2096     In  0.58168143  0.43643550  0.96715438     1.36900
C2097       C  0.55561717  0.43239377  0.50172380     0.78100
O2098       O  0.59259119  0.44727733  0.51290194    -0.60400
O2099       O  0.58890925  0.46134989  0.96916387    -0.51300
C2100       C  0.60584744  0.41884846  0.95252200     0.70700
O2101       O  0.59725120  0.41623865  0.97813835    -0.46200
C2102       C  0.56610603  0.43388702  0.90970949     0.75400
O2103       O  0.56654611  0.42254980  0.50283882    -0.58000
O2104       O  0.57264647  0.44643051  0.91857128    -0.48100
O2105       O  0.55855401  0.44436585  0.98461590    -0.54400
C2106       C  0.59320400  0.46072933  0.99998111     0.85600
O2107       O  0.60239228  0.43082086  0.93563464    -0.56300
O2108       O  0.56867515  0.42246325  0.92906130    -0.59600
In2109     In  0.82396740  0.68104325  0.58431341     1.36900
C2110       C  0.82748489  0.70667258  0.54774082     0.78100
O2111       O  0.81317663  0.67210473  0.53677813    -0.60400
O2112       O  0.79917792  0.67257872  0.58174186    -0.51300
C2113       C  0.84100829  0.65616871  0.59789795     0.70700
O2114       O  0.84504962  0.66607394  0.57570020    -0.46200
C2115       C  0.82788632  0.69587456  0.64258069     0.75400
O2116       O  0.83698861  0.69546470  0.54578172    -0.58000
O2117       O  0.81456114  0.69147231  0.63270071    -0.48100
O2118       O  0.81641465  0.70454877  0.56840756    -0.54400
C2119       C  0.79994576  0.66995062  0.54996462     0.85600
O2120       O  0.82788848  0.65870017  0.61137244    -0.56300
O2121       O  0.83901180  0.69205804  0.62330518    -0.59600
In2122     In  0.94031517  0.56456877  0.72608402     1.36900
C2123       C  0.96437354  0.56835200  0.76707879     0.78100
O2124       O  0.92760592  0.55460783  0.77052270    -0.60400
O2125       O  0.93491007  0.53914475  0.73114981    -0.51300
C2126       C  0.91637077  0.58133811  0.70543261     0.70700
O2127       O  0.92592589  0.58616085  0.72762115    -0.46200
C2128       C  0.95782866  0.56882843  0.67146254     0.75400
O2129       O  0.95252244  0.57706950  0.76906080    -0.58000
O2130       O  0.95099222  0.55600721  0.67707767    -0.48100
O2131       O  0.96348600  0.55772118  0.74504692    -0.54400
C2132       C  0.92880970  0.54073946  0.76042426     0.85600
O2133       O  0.91861922  0.56755863  0.69552807    -0.56300
O2134       O  0.95466612  0.57940906  0.69258911    -0.59600
In2135     In  0.83851216  0.31105165  0.61066921     1.36900
C2136       C  0.84037250  0.28605443  0.64922759     0.78100
O2137       O  0.83109491  0.32218706  0.65911245    -0.60400
O2138       O  0.81457824  0.32058537  0.61862835    -0.51300
C2139       C  0.85588694  0.33469174  0.59035543     0.70700
O2140       O  0.86007295  0.32554267  0.61392642    -0.46200
C2141       C  0.83877874  0.29361661  0.55561070     0.75400
O2142       O  0.85210791  0.29478667  0.64463969    -0.58000
O2143       O  0.82678293  0.30111140  0.56473814    -0.48100
O2144       O  0.82811041  0.29029799  0.63430901    -0.54400
C2145       C  0.81720039  0.32415648  0.64949386     0.85600
O2146       O  0.84251210  0.33197330  0.57841330    -0.56300
O2147       O  0.85072218  0.29612450  0.57345228    -0.59600
In2148     In  0.94900450  0.43446615  0.96542413     1.36900
C2149       C  0.97287873  0.43240102  0.92262580     0.78100
O2150       O  0.93463400  0.44348582  0.92235650    -0.60400
O2151       O  0.94087833  0.45910454  0.96206555    -0.51300
C2152       C  0.92653512  0.41542950  0.48527382     0.70700
O2153       O  0.93574127  0.41206547  0.96032007    -0.46200
C2154       C  0.96636730  0.43430531  0.52163173     0.75400
O2155       O  0.96364847  0.42114230  0.92738780    -0.58000
O2156       O  0.95831837  0.44595728  0.51317068    -0.48100
O2157       O  0.96966714  0.44441984  0.93949482    -0.54400
C2158       C  0.93455032  0.45729516  0.93323117     0.85600
O2159       O  0.92874302  0.42860045  0.49850321    -0.56300
O2160       O  0.96504582  0.42275252  0.50209321    -0.59600
In2161     In  0.32438056  0.17443840  0.83372151     1.36900
C2162       C  0.32824014  0.19891453  0.79441179     0.78100
O2163       O  0.31852288  0.16337160  0.78415472    -0.60400
O2164       O  0.30078253  0.16418123  0.82219885    -0.51300
C2165       C  0.34178946  0.15125551  0.85590308     0.70700
O2166       O  0.34632583  0.16067451  0.83314670    -0.46200
C2167       C  0.32457675  0.19257492  0.88848062     0.75400
O2168       O  0.33909656  0.18919298  0.79917310    -0.58000
O2169       O  0.31214099  0.18625024  0.87783789    -0.48100
O2170       O  0.31565045  0.19583362  0.80958300    -0.54400
C2171       C  0.30445436  0.16088055  0.79161617     0.85600
O2172       O  0.32797714  0.15337470  0.86608266    -0.56300
O2173       O  0.33665311  0.18859605  0.87239051    -0.59600
In2174     In  0.44071672  0.06013037  0.99215447     1.36900
C2175       C  0.46475807  0.06583239  0.53203599     0.78100
O2176       O  0.42808183  0.04871804  0.53532199    -0.60400
O2177       O  0.43494292  0.03465000  0.99574564    -0.51300
C2178       C  0.41727595  0.07792742  0.97090372     0.70700
O2179       O  0.42651931  0.08196167  0.99435905    -0.46200
C2180       C  0.45843434  0.06195643  0.93669214     0.75400
O2181       O  0.45223483  0.07348808  0.53418920    -0.58000
O2182       O  0.45188991  0.04945327  0.94585883    -0.48100
O2183       O  0.46444974  0.05504232  0.01081352    -0.54400
C2184       C  0.42913375  0.03566466  0.02532224     0.85600
O2185       O  0.41948304  0.06429541  0.96002179    -0.56300
O2186       O  0.45485573  0.07360763  0.95459289    -0.59600
In2187     In  0.19546125  0.18124135  0.59553815     1.36900
C2188       C  0.19553019  0.20681287  0.63356550     0.78100
O2189       O  0.20324863  0.17023598  0.64359036    -0.60400
O2190       O  0.21864205  0.16909720  0.60098849    -0.51300
C2191       C  0.17486321  0.15886550  0.58267225     0.70700
O2192       O  0.17211078  0.16998286  0.60292607    -0.46200
C2193       C  0.19601779  0.19766035  0.53841066     0.75400
O2194       O  0.18406399  0.19754202  0.63327753    -0.58000
O2195       O  0.20782289  0.19025005  0.54876102    -0.48100
O2196       O  0.20675842  0.20273280  0.61487852    -0.54400
C2197       C  0.21651441  0.16652671  0.63250389     0.85600
O2198       O  0.18813121  0.15941776  0.56876348    -0.56300
O2199       O  0.18386383  0.19556977  0.55593012    -0.59600
In2200     In  0.07051747  0.06008914  0.99874443     1.36900
C2201       C  0.04440645  0.06018309  0.96187002     0.78100
O2202       O  0.08314387  0.05190403  0.95238371    -0.60400
O2203       O  0.07814098  0.03548960  0.99162559    -0.51300
C2204       C  0.09289610  0.07998465  0.51522709     0.70700
O2205       O  0.08206926  0.08338225  0.99485714    -0.46200
C2206       C  0.05616499  0.06023192  0.55787649     0.75400
O2207       O  0.05456196  0.07080100  0.95885900    -0.58000
O2208       O  0.06418858  0.04870644  0.54824912    -0.48100
O2209       O  0.04770354  0.05007998  0.98391093    -0.54400
C2210       C  0.08306545  0.03786510  0.96163185     0.85600
O2211       O  0.09266440  0.06610841  0.52568551    -0.56300
O2212       O  0.05630242  0.07176029  0.53800322    -0.59600
In2213     In  0.44698109  0.92538431  0.72186745     1.36900
C2214       C  0.47178804  0.92447293  0.68187935     0.78100
O2215       O  0.43302094  0.93432434  0.67819574    -0.60400
O2216       O  0.43798828  0.94996677  0.71854887    -0.51300
C2217       C  0.42583237  0.90442924  0.73915741     0.70700
O2218       O  0.43556302  0.90223252  0.71542702    -0.46200
C2219       C  0.46435912  0.92387520  0.77720367     0.75400
O2220       O  0.46106561  0.91443765  0.67949122    -0.58000
O2221       O  0.45555002  0.93538884  0.77158494    -0.48100
O2222       O  0.46933464  0.93495144  0.70368595    -0.54400
C2223       C  0.43211185  0.94804122  0.68923213     0.85600
O2224       O  0.42663302  0.91767336  0.75294152    -0.56300
O2225       O  0.46316462  0.91295793  0.75592167    -0.59600
In2226     In  0.33273360  0.80668301  0.87190776     1.36900
C2227       C  0.33632926  0.78741034  0.92374188     0.78100
O2228       O  0.32494932  0.82362729  0.91130877    -0.60400
O2229       O  0.30846079  0.81623877  0.87408244    -0.51300
C2230       C  0.35117874  0.82704659  0.84139139     0.70700
O2231       O  0.35490115  0.82021246  0.86873997    -0.46200
C2232       C  0.33234560  0.78412661  0.82605531     0.75400
O2233       O  0.34743809  0.79565074  0.91260282    -0.58000
O2234       O  0.32084176  0.79308477  0.83029511    -0.48100
O2235       O  0.32346623  0.78956042  0.90899781    -0.54400
C2236       C  0.31104493  0.82397582  0.90098387     0.85600
O2237       O  0.33780178  0.82369981  0.83043298    -0.56300
O2238       O  0.34395615  0.78715919  0.84447324    -0.59600
In2239     In  0.07594320  0.94038980  0.72728522     1.36900
C2240       C  0.05018947  0.93544525  0.76196705     0.78100
O2241       O  0.08671430  0.94761934  0.77648512    -0.60400
O2242       O  0.08235223  0.96518331  0.73956918    -0.51300
C2243       C  0.10011464  0.92317709  0.70970725     0.70700
O2244       O  0.08991985  0.91861215  0.73076960    -0.46200
C2245       C  0.06043814  0.93943498  0.66912219     0.75400
O2246       O  0.06161209  0.92621587  0.76397138    -0.58000
O2247       O  0.06633816  0.95198982  0.68015054    -0.48100
O2248       O  0.05217984  0.94693929  0.74263737    -0.54400
C2249       C  0.08673160  0.96190784  0.76959054     0.85600
O2250       O  0.09817522  0.93685016  0.69870326    -0.56300
O2251       O  0.06364055  0.92757972  0.68663481    -0.59600
In2252     In  0.19476068  0.82538639  0.58282976     1.36900
C2253       C  0.18934488  0.80329367  0.53726881     0.78100
O2254       O  0.20500420  0.83730977  0.53766341    -0.60400
O2255       O  0.21999481  0.83274789  0.57972915    -0.51300
C2256       C  0.17770803  0.84882072  0.60637920     0.70700
O2257       O  0.17363031  0.84054979  0.58126265    -0.46200
C2258       C  0.19261038  0.80573645  0.63471712     0.75400
O2259       O  0.17963257  0.81406546  0.54273767    -0.58000
O2260       O  0.20522551  0.81258282  0.62736911    -0.48100
O2261       O  0.20157662  0.80408965  0.55491527    -0.54400
C2262       C  0.21870302  0.83736357  0.54919390     0.85600
O2263       O  0.19100264  0.84560814  0.61802217    -0.56300
O2264       O  0.18122042  0.80956415  0.61638892    -0.59600
In2265     In  0.69213440  0.18740108  0.60292127     1.36900
C2266       C  0.69065200  0.21353621  0.56763219     0.78100
O2267       O  0.67976385  0.20235813  0.64010341    -0.60400
O2268       O  0.70317983  0.19590400  0.65092103    -0.51300
C2269       C  0.67369895  0.16445155  0.62311044     0.70700
O2270       O  0.66990781  0.17376192  0.59950216    -0.46200
C2271       C  0.71442523  0.17441029  0.56585289     0.75400
O2272       O  0.67989800  0.20343530  0.56580344    -0.58000
O2273       O  0.71661638  0.17922607  0.59599109    -0.48100
O2274       O  0.70202753  0.20968314  0.58595383    -0.54400
C2275       C  0.69144728  0.20394922  0.65933662     0.85600
O2276       O  0.68716390  0.16663870  0.63508156    -0.56300
O2277       O  0.70046441  0.17508235  0.55586766    -0.59600
In2278     In  0.57506445  0.06758984  0.73722660     1.36900
C2279       C  0.55068986  0.06822106  0.77855896     0.78100
O2280       O  0.55986416  0.08094959  0.70234987    -0.60400
O2281       O  0.56686712  0.05827534  0.68704200    -0.51300
C2282       C  0.59717761  0.08753899  0.72089694     0.70700
O2283       O  0.58626394  0.09093348  0.74126055    -0.46200
C2284       C  0.58909077  0.04427005  0.76856852     0.75400
O2285       O  0.56207310  0.07742536  0.78216504    -0.58000
O2286       O  0.58279719  0.04274407  0.73956282    -0.48100
O2287       O  0.55198655  0.05882401  0.75405397    -0.54400
C2288       C  0.55864775  0.07013383  0.68077373     0.85600
O2289       O  0.59706817  0.07370132  0.71023620    -0.56300
O2290       O  0.58900946  0.05794591  0.78014060    -0.59600
In2291     In  0.69165121  0.81417173  0.60923967     1.36900
C2292       C  0.68739797  0.79004623  0.65000241     0.78100
O2293       O  0.67478173  0.80075483  0.57844527    -0.60400
O2294       O  0.69833187  0.80168179  0.56123505    -0.51300
C2295       C  0.67685185  0.83968296  0.58956618     0.70700
O2296       O  0.67257143  0.83176924  0.61519235    -0.46200
C2297       C  0.71698052  0.82460271  0.64022334     0.75400
O2298       O  0.67869741  0.80193702  0.65169573    -0.58000
O2299       O  0.71722589  0.81984842  0.60959459    -0.48100
O2300       O  0.69835790  0.79101483  0.62863335    -0.54400
C2301       C  0.68481960  0.79597124  0.55737979     0.85600
O2302       O  0.68900963  0.83473652  0.57504112    -0.56300
O2303       O  0.70362432  0.82485604  0.65371758    -0.59600
In2304     In  0.58040040  0.93729389  0.97128542     1.36900
C2305       C  0.55512373  0.93367623  0.93404784     0.78100
O2306       O  0.56690091  0.92333796  0.50905460    -0.60400
O2307       O  0.57056844  0.94735341  0.51939146    -0.51300
C2308       C  0.60398434  0.91865835  0.48743464     0.70700
O2309       O  0.59497178  0.91604827  0.96326545    -0.46200
C2310       C  0.59346736  0.96011222  0.93612898     0.75400
O2311       O  0.56490246  0.92287448  0.93812030    -0.58000
O2312       O  0.58823085  0.96198622  0.96609200    -0.48100
O2313       O  0.55873868  0.94645507  0.94754875    -0.54400
C2314       C  0.56422212  0.93471073  0.52837401     0.85600
O2315       O  0.60146807  0.93156215  0.50179155    -0.56300
O2316       O  0.59290774  0.94628539  0.92540236    -0.59600
In2317     In  0.94286563  0.93488573  0.97600893     1.36900
C2318       C  0.96831240  0.93390493  0.51240979     0.78100
O2319       O  0.95632108  0.92373855  0.93493700    -0.60400
O2320       O  0.95127193  0.94784692  0.92986097    -0.51300
C2321       C  0.92142066  0.91467764  0.95694053     0.70700
O2322       O  0.93262758  0.91098791  0.97623450    -0.46200
C2323       C  0.92823170  0.95513250  0.01486064     0.75400
O2324       O  0.95833523  0.92350871  0.01502909    -0.58000
O2325       O  0.93208636  0.95822790  0.98439854    -0.48100
O2326       O  0.96556916  0.94469833  0.99193786    -0.54400
C2327       C  0.95836427  0.93608979  0.91821418     0.85600
O2328       O  0.92087596  0.92889723  0.94918201    -0.56300
O2329       O  0.93049163  0.94147661  0.52380404    -0.59600
In2330     In  0.83392859  0.81095609  0.82875752     1.36900
C2331       C  0.84098092  0.78443266  0.79888027     0.78100
O2332       O  0.84326142  0.80024332  0.87608243    -0.60400
O2333       O  0.81866645  0.80214719  0.87102340    -0.51300
C2334       C  0.85149441  0.83488494  0.84709802     0.70700
O2335       O  0.85658534  0.82423451  0.82788555    -0.46200
C2336       C  0.81219849  0.82109656  0.78611604     0.75400
O2337       O  0.84955799  0.79629674  0.79527406    -0.58000
O2338       O  0.81031394  0.82103964  0.81808253    -0.48100
O2339       O  0.82905851  0.78644194  0.81703310    -0.54400
C2340       C  0.83002661  0.79724224  0.88841911     0.85600
O2341       O  0.83730607  0.83358070  0.85464365    -0.56300
O2342       O  0.82555340  0.81702120  0.77629097    -0.59600
In2343     In  0.93786159  0.05222607  0.74592249     1.36900
C2344       C  0.96379383  0.05708377  0.71117635     0.78100
O2345       O  0.94948343  0.06333869  0.79045593    -0.60400
O2346       O  0.94693208  0.03878628  0.79124387    -0.51300
C2347       C  0.91434335  0.07074050  0.76158488     0.70700
O2348       O  0.92562497  0.07496848  0.74302698    -0.46200
C2349       C  0.92596421  0.03086649  0.70477619     0.75400
O2350       O  0.95265683  0.06665532  0.71017203    -0.58000
O2351       O  0.92962080  0.02794425  0.73537423    -0.48100
O2352       O  0.96130165  0.04523081  0.72909308    -0.54400
C2353       C  0.95242954  0.05076456  0.80557614     0.85600
O2354       O  0.91496075  0.05675616  0.77122629    -0.56300
O2355       O  0.92725418  0.04493509  0.69640557    -0.59600
In2356     In  0.82406603  0.17819700  0.85922954     1.36900
C2357       C  0.82894858  0.20222686  0.89922134     0.78100
O2358       O  0.84061155  0.19111745  0.82662053    -0.60400
O2359       O  0.81736947  0.18881450  0.80857673    -0.51300
C2360       C  0.83988800  0.15303032  0.84294047     0.70700
O2361       O  0.84421641  0.16236829  0.86601263    -0.46200
C2362       C  0.79940608  0.16775329  0.89326569     0.75400
O2363       O  0.83698034  0.18996714  0.90179096    -0.58000
O2364       O  0.79826479  0.17380441  0.86386469    -0.48100
O2365       O  0.81827599  0.20180929  0.87718078    -0.54400
C2366       C  0.83080540  0.19463932  0.80401645     0.85600
O2367       O  0.82706483  0.15642143  0.82906011    -0.56300
O2368       O  0.81320857  0.16617077  0.90358038    -0.59600
C2369       C  0.87490904  0.12692854  0.83426855    -0.01500
C2370       C  0.86975898  0.11575741  0.81052839     0.07100
C2371       C  0.85442500  0.11631005  0.79855938    -0.07500
C2372       C  0.84433499  0.12818296  0.80890700     0.04500
C2373       C  0.84952921  0.13957437  0.83243496    -0.14700
C2374       C  0.86477905  0.13858829  0.84520884    -0.08100
C2375       C  0.88052752  0.10404313  0.79621347     0.05400
C2376       C  0.87867711  0.08838538  0.80499118    -0.09200
C2377       C  0.88913236  0.07714897  0.79297899     0.00400
C2378       C  0.90187062  0.08165799  0.77215393     0.00300
C2379       C  0.90320588  0.09730852  0.76231930    -0.12700
C2380       C  0.89260383  0.10842127  0.77386642     0.00800
C2381       C  0.88635593  0.06116341  0.80227904     0.40100
C2382       C  0.89417885  0.12425314  0.76218043     0.36700
C2383       C  0.89066233  0.12689505  0.84710424     0.36400
C2384       C  0.82895233  0.12850543  0.79414538     0.37200
N2385       N  0.88404028  0.04834207  0.80954712    -0.43600
N2386       N  0.89529214  0.13695399  0.75285695    -0.44100
N2387       N  0.81668286  0.12873774  0.78199976    -0.41400
N2388       N  0.90331479  0.12697998  0.85719199    -0.42900
H2389       H  0.86901754  0.14723117  0.86309300     0.13300
H2390       H  0.85051739  0.10774390  0.78014649     0.09800
H2391       H  0.86913352  0.08497996  0.82155161     0.10900
H2392       H  0.91267576  0.10097375  0.74582148     0.16700
C2393       C  0.91238845  0.97164507  0.59711563    -0.01500
C2394       C  0.91678838  0.98739410  0.59462413     0.07100
C2395       C  0.92284505  0.99293323  0.56355747    -0.07500
C2396       C  0.92522485  0.98296635  0.53580742     0.04500
C2397       C  0.92204150  0.96694723  0.53934435    -0.14700
C2398       C  0.91512038  0.96159397  0.56969554    -0.08100
C2399       C  0.91687920  0.99786001  0.62489902     0.05400
C2400       C  0.92559164  0.99343745  0.65361974    -0.09200
C2401       C  0.92810459  0.00375445  0.68068837     0.00400
C2402       C  0.92156933  0.01878956  0.67964800     0.00300
C2403       C  0.91239867  0.02303133  0.65145882    -0.12700
C2404       C  0.91011643  0.01278373  0.62410160     0.00800
C2405       C  0.93886196  0.99917936  0.70714644     0.40100
C2406       C  0.90141668  0.01810083  0.59481791     0.36700
C2407       C  0.90544741  0.96539036  0.62779617     0.36400
C2408       C  0.93181766  0.98942812  0.50495978     0.37200
N2409       N  0.94766407  0.99560142  0.72805181    -0.43600
N2410       N  0.89470531  0.02236185  0.57099413    -0.44100
N2411       N  0.93701461  0.99469470  0.48024154    -0.41400
N2412       N  0.89991109  0.96027116  0.65230448    -0.42900
H2413       H  0.91237562  0.94937620  0.57255263     0.13300
H2414       H  0.92643167  0.00495242  0.56144705     0.09800
H2415       H  0.93128788  0.98223896  0.65391950     0.10900
H2416       H  0.90751196  0.03460156  0.65016411     0.16700
C2417       C  0.90564661  0.87605417  0.92669601    -0.01500
C2418       C  0.89220726  0.88056619  0.90862846     0.07100
C2419       C  0.88770540  0.89619060  0.90888085    -0.07500
C2420       C  0.89658683  0.90741716  0.92575347     0.04500
C2421       C  0.91047075  0.90306854  0.94261675    -0.14700
C2422       C  0.91465365  0.88729228  0.94337259    -0.08100
C2423       C  0.88195275  0.86913634  0.89140880     0.05400
C2424       C  0.86662309  0.86769715  0.90310797    -0.09200
C2425       C  0.85631979  0.85720818  0.88800810     0.00400
C2426       C  0.86147954  0.84742659  0.86115621     0.00300
C2427       C  0.87677871  0.84918135  0.84884052    -0.12700
C2428       C  0.88689984  0.86016435  0.86325713     0.00800
C2429       C  0.84056069  0.85690271  0.90087509     0.40100
C2430       C  0.90201205  0.86248363  0.84787280     0.36700
C2431       C  0.91025630  0.85997209  0.92901511     0.36400
C2432       C  0.89092601  0.92319354  0.92572472     0.37200
N2433       N  0.82790739  0.85683240  0.91105319    -0.43600
N2434       N  0.91405502  0.86444496  0.83529758    -0.44100
N2435       N  0.88624351  0.93578536  0.92567369    -0.41400
N2436       N  0.91397035  0.84708954  0.93085638    -0.42900
H2437       H  0.92519738  0.88371779  0.95647835     0.13300
H2438       H  0.87710855  0.89963298  0.89575028     0.09800
H2439       H  0.86269224  0.87483713  0.92417637     0.10900
H2440       H  0.88080766  0.84208096  0.82781699     0.16700
C2441       C  0.77600134  0.83957217  0.74939740    -0.01500
C2442       C  0.77300151  0.82994196  0.72091940     0.07100
C2443       C  0.78380179  0.81837060  0.71228496    -0.07500
C2444       C  0.79703123  0.81582202  0.73231610     0.04500
C2445       C  0.79947213  0.82476756  0.76210908    -0.14700
C2446       C  0.78896743  0.83668806  0.77016542    -0.08100
C2447       C  0.75831102  0.83089939  0.70087814     0.05400
C2448       C  0.75910989  0.83291237  0.66528379    -0.09200
C2449       C  0.74575788  0.83156041  0.64485739     0.00400
C2450       C  0.73118664  0.82837801  0.66016604     0.00300
C2451       C  0.73032826  0.82714951  0.69594217    -0.12700
C2452       C  0.74370115  0.82802607  0.71618287     0.00800
C2453       C  0.74745546  0.83319907  0.60834411     0.40100
C2454       C  0.74224418  0.82451910  0.75213922     0.36700
C2455       C  0.76611657  0.85261230  0.75745336     0.36400
C2456       C  0.80740478  0.80335431  0.72274692     0.37200
N2457       N  0.74887429  0.83447378  0.57906935    -0.43600
N2458       N  0.74103838  0.82161083  0.78088710    -0.44100
N2459       N  0.81573715  0.79339743  0.71503771    -0.41400
N2460       N  0.75826411  0.86312671  0.76386016    -0.42900
H2461       H  0.79092524  0.84377468  0.79262504     0.13300
H2462       H  0.78162882  0.81096996  0.69040528     0.09800
H2463       H  0.77029266  0.83501807  0.65333777     0.10900
H2464       H  0.71931762  0.82447982  0.70807735     0.16700
C2465       C  0.63695679  0.90303857  0.54119400    -0.01500
C2466       C  0.63837790  0.88763360  0.52946643     0.07100
C2467       C  0.62894016  0.88261085  0.50233742    -0.07500
C2468       C  0.61803278  0.89256942  0.48725397     0.04500
C2469       C  0.61635113  0.90794537  0.49956023    -0.14700
C2470       C  0.62608529  0.91299755  0.52621127    -0.08100
C2471       C  0.64928593  0.87641228  0.54562909     0.05400
C2472       C  0.64726146  0.87242031  0.58014155    -0.09200
C2473       C  0.65652608  0.86100327  0.59553501     0.00400
C2474       C  0.66797956  0.85317471  0.57611580     0.00300
C2475       C  0.67044971  0.85773515  0.54201145    -0.12700
C2476       C  0.66123574  0.86918730  0.52672518     0.00800
C2477       C  0.65414259  0.85771988  0.63132539     0.40100
C2478       C  0.66444577  0.87412974  0.99250796     0.36700
C2479       C  0.64652151  0.90896573  0.56854197     0.36400
C2480       C  0.60858660  0.88648862  0.45982939     0.37200
N2481       N  0.65232770  0.85511956  0.66006522    -0.43600
N2482       N  0.66691384  0.87773190  0.96453473    -0.44100
N2483       N  0.60106181  0.88155991  0.43783551    -0.41400
N2484       N  0.65409396  0.91381706  0.59052362    -0.42900
H2485       H  0.62505139  0.92473987  0.53591373     0.13300
H2486       H  0.62991975  0.87075232  0.49331799     0.09800
H2487       H  0.63818836  0.87805021  0.59495666     0.10900
H2488       H  0.67931882  0.85201320  0.52680220     0.16700
C2489       C  0.60975410  0.02286966  0.83933647    -0.01500
C2490       C  0.60361491  0.00775043  0.83606240     0.07100
C2491       C  0.59407350  0.00426723  0.80800943    -0.07500
C2492       C  0.58973044  0.01577792  0.78467951     0.04500
C2493       C  0.59531426  0.03111807  0.78877289    -0.14700
C2494       C  0.60567383  0.03433947  0.81564832    -0.08100
C2495       C  0.60446712  0.99622484  0.86424423     0.05400
C2496       C  0.59744435  0.00003483  0.89552113    -0.09200
C2497       C  0.59468198  0.98869851  0.92041185     0.00400
C2498       C  0.59886610  0.97307515  0.91403339     0.00300
C2499       C  0.60688399  0.96950919  0.88362590    -0.12700
C2500       C  0.60976916  0.98093516  0.85891057     0.00800
C2501       C  0.58651616  0.99337593  0.95098693     0.40100
C2502       C  0.61793451  0.97665507  0.82804431     0.36700
C2503       C  0.61971478  0.02705954  0.86756096     0.36400
C2504       C  0.57821963  0.01182535  0.75926333     0.37200
N2505       N  0.57995642  0.99722843  0.97540191    -0.43600
N2506       N  0.62456915  0.97320390  0.80343487    -0.44100
N2507       N  0.56884068  0.00866263  0.73923317    -0.41400
N2508       N  0.62763187  0.03050803  0.89022959    -0.42900
H2509       H  0.61007309  0.04605098  0.81909065     0.13300
H2510       H  0.58901046  0.99275701  0.80581001     0.09800
H2511       H  0.59323303  0.01172019  0.89966945     0.10900
H2512       H  0.61043064  0.95768219  0.87857002     0.16700
C2513       C  0.77718850  0.15444324  0.97151074    -0.01500
C2514       C  0.76230380  0.16077725  0.96582176     0.07100
C2515       C  0.75907821  0.16770550  0.93416064    -0.07500
C2516       C  0.77066057  0.16923913  0.90908599     0.04500
C2517       C  0.78589849  0.16377792  0.91554239    -0.14700
C2518       C  0.78877551  0.15591328  0.94645842    -0.08100
C2519       C  0.75057949  0.16215241  0.99371216     0.05400
C2520       C  0.75384783  0.17185046  0.52176966    -0.09200
C2521       C  0.74246698  0.17553661  0.54610217     0.00400
C2522       C  0.72727678  0.16932377  0.54306522     0.00300
C2523       C  0.72394588  0.15938464  0.51549142    -0.12700
C2524       C  0.73550037  0.15579436  0.99092065     0.00800
C2525       C  0.74632484  0.18698280  0.57173312     0.40100
C2526       C  0.73130428  0.14599193  0.96245554     0.36700
C2527       C  0.78078608  0.14709025  0.50357276     0.36400
C2528       C  0.76672815  0.17736375  0.87805089     0.37200
N2529       N  0.74935163  0.19632435  0.59193508    -0.43600
N2530       N  0.72795664  0.13821248  0.93949220    -0.44100
N2531       N  0.76354582  0.18391688  0.85322778    -0.41400
N2532       N  0.78385306  0.14103274  0.52907144    -0.42900
H2533       H  0.80028959  0.15145477  0.95176709     0.13300
H2534       H  0.74770246  0.17267184  0.92972969     0.09800
H2535       H  0.76524557  0.17713384  0.52359924     0.10900
H2536       H  0.71234118  0.15465549  0.51266768     0.16700
C2537       C  0.63508714  0.10345766  0.68681157    -0.01500
C2538       C  0.63169618  0.11938414  0.68324455     0.07100
C2539       C  0.61702694  0.12492784  0.69313532    -0.07500
C2540       C  0.60570831  0.11485602  0.70626285     0.04500
C2541       C  0.60903367  0.09885836  0.70952717    -0.14700
C2542       C  0.62375662  0.09335569  0.69973199    -0.08100
C2543       C  0.64291969  0.13038199  0.66761418     0.05400
C2544       C  0.63933173  0.13689615  0.63578498    -0.09200
C2545       C  0.64928890  0.14769977  0.62031657     0.00400
C2546       C  0.66314595  0.15228873  0.63700183     0.00300
C2547       C  0.66679245  0.14552243  0.66876961    -0.12700
C2548       C  0.65681391  0.13469851  0.68413839     0.00800
C2549       C  0.64503453  0.15361887  0.58714372     0.40100
C2550       C  0.66082943  0.12848866  0.71725094     0.36700
C2551       C  0.64992967  0.09714618  0.67652647     0.36400
C2552       C  0.59054492  0.12112201  0.71423447     0.37200
N2553       N  0.64158270  0.15828056  0.56049205    -0.43600
N2554       N  0.66400712  0.12341814  0.74371146    -0.44100
N2555       N  0.57837627  0.12613589  0.72047180    -0.41400
N2556       N  0.66184933  0.09207167  0.66848479    -0.42900
H2557       H  0.62639527  0.08107416  0.70194881     0.13300
H2558       H  0.61434863  0.13715857  0.69007519     0.09800
H2559       H  0.62868116  0.13348361  0.62295501     0.10900
H2560       H  0.67730452  0.14892907  0.68207651     0.16700
C2561       C  0.02351454  0.92910233  0.83669138    -0.01500
C2562       C  0.00928244  0.93469326  0.82364558     0.07100
C2563       C  0.00824724  0.93917160  0.78940845    -0.07500
C2564       C  0.02129636  0.93853624  0.76818982     0.04500
C2565       C  0.03573607  0.93361417  0.78158823    -0.14700
C2566       C  0.03661889  0.92855876  0.81553029    -0.08100
C2567       C  0.99512412  0.93527120  0.84488021     0.05400
C2568       C  0.98947305  0.94966048  0.85614070    -0.09200
C2569       C  0.97661292  0.95043829  0.87812999     0.00400
C2570       C  0.96940009  0.93655307  0.88926931     0.00300
C2571       C  0.97455044  0.92228445  0.87597427    -0.12700
C2572       C  0.98725793  0.92156937  0.85387777     0.00800
C2573       C  0.97156937  0.96552397  0.88983678     0.40100
C2574       C  0.99218597  0.90665356  0.84094934     0.36700
C2575       C  0.02503324  0.92427010  0.87185395     0.36400
C2576       C  0.01943286  0.94251482  0.73256424     0.37200
N2577       N  0.96746820  0.97761158  0.89910632    -0.43600
N2578       N  0.99621190  0.89477102  0.83036405    -0.44100
N2579       N  0.01784220  0.94556762  0.70398922    -0.41400
N2580       N  0.02631072  0.92035334  0.89998818    -0.42900
H2581       H  0.04770202  0.92479750  0.82592983     0.13300
H2582       H  0.99716699  0.94303275  0.77921511     0.09800
H2583       H  0.99537913  0.96023047  0.84847280     0.10900
H2584       H  0.96896948  0.91154672  0.88376606     0.16700
C2585       C  0.99578537  0.92832577  0.58651098    -0.01500
C2586       C  0.00955267  0.93527254  0.57409483     0.07100
C2587       C  0.00994565  0.94115261  0.54079328    -0.07500
C2588       C  0.99675143  0.94055948  0.51999023     0.04500
C2589       C  0.98284600  0.93376671  0.53249442    -0.14700
C2590       C  0.98262341  0.92749382  0.56555427    -0.08100
C2591       C  0.02359041  0.93679326  0.59569419     0.05400
C2592       C  0.03222974  0.92350026  0.60334942    -0.09200
C2593       C  0.04508660  0.92430648  0.62512860     0.00400
C2594       C  0.04933123  0.93866217  0.64020552     0.00300
C2595       C  0.04112451  0.95212346  0.63092854    -0.12700
C2596       C  0.02834513  0.95128290  0.60879168     0.00800
C2597       C  0.05361822  0.91017365  0.63157708     0.40100
C2598       C  0.01982348  0.96527237  0.60093333     0.36700
C2599       C  0.99470175  0.92260557  0.62110444     0.36400
C2600       C  0.99821669  0.94699440  0.98564610     0.37200
N2601       N  0.06046632  0.89884859  0.63665570    -0.43600
N2602       N  0.01291044  0.97639295  0.59433232    -0.44100
N2603       N  0.99921092  0.95209501  0.95837381    -0.41400
N2604       N  0.99376538  0.91808176  0.64886927    -0.42900
H2605       H  0.97194727  0.92241879  0.57552102     0.13300
H2606       H  0.02060432  0.94638505  0.53117256     0.09800
H2607       H  0.02877412  0.91240090  0.59253121     0.10900
H2608       H  0.04418602  0.96321720  0.64228641     0.16700
C2609       C  0.14090057  0.87100538  0.62706003    -0.01500
C2610       C  0.14586608  0.88131876  0.65278848     0.07100
C2611       C  0.16150944  0.88129840  0.66280476    -0.07500
C2612       C  0.17225474  0.87119920  0.64747622     0.04500
C2613       C  0.16727378  0.86067695  0.62184278    -0.14700
C2614       C  0.15155068  0.86082647  0.61192061    -0.08100
C2615       C  0.13498535  0.89265887  0.66838337     0.05400
C2616       C  0.12952535  0.89024790  0.70176664    -0.09200
C2617       C  0.11854630  0.90033363  0.71635775     0.00400
C2618       C  0.11283727  0.91304029  0.69724051     0.00300
C2619       C  0.11882943  0.91571896  0.66435943    -0.12700
C2620       C  0.12981030  0.90569139  0.64992259     0.00800
C2621       C  0.11371680  0.89766598  0.75122863     0.40100
C2622       C  0.13565288  0.90898233  0.61608603     0.36700
C2623       C  0.12488584  0.87060320  0.61594827     0.36400
C2624       C  0.18830439  0.87222727  0.65810338     0.37200
N2625       N  0.10992167  0.89564837  0.77926776    -0.43600
N2626       N  0.14039926  0.91159590  0.58900784    -0.44100
N2627       N  0.20116405  0.87317547  0.66661734    -0.41400
N2628       N  0.11206625  0.87032614  0.60695014    -0.42900
H2629       H  0.14745610  0.85280819  0.59252159     0.13300
H2630       H  0.16537384  0.88939020  0.68229897     0.09800
H2631       H  0.13372413  0.88038249  0.71625869     0.10900
H2632       H  0.11464241  0.92546940  0.64947640     0.16700
C2633       C  0.28709860  0.83513610  0.97754073    -0.01500
C2634       C  0.27305010  0.84025908  0.96252054     0.07100
C2635       C  0.27257543  0.84233905  0.92684994    -0.07500
C2636       C  0.28495186  0.83753995  0.90600709     0.04500
C2637       C  0.29858518  0.83155691  0.92102501    -0.14700
C2638       C  0.29975116  0.83115769  0.95678140    -0.08100
C2639       C  0.25829704  0.84137370  0.98274505     0.05400
C2640       C  0.25845707  0.84961937  0.51503409    -0.09200
C2641       C  0.24546299  0.84884806  0.53685760     0.00400
C2642       C  0.23218620  0.84040498  0.52671087     0.00300
C2643       C  0.23214127  0.83305620  0.49479634    -0.12700
C2644       C  0.24490393  0.83289803  0.97289753     0.00800
C2645       C  0.24602081  0.85676420  0.56932965     0.40100
C2646       C  0.24465817  0.82315423  0.94282858     0.36700
C2647       C  0.28854512  0.83262109  0.01387828     0.36400
C2648       C  0.28310158  0.83832698  0.86939600     0.37200
N2649       N  0.24654143  0.86312853  0.59535372    -0.43600
N2650       N  0.24445284  0.81534487  0.91876051    -0.44100
N2651       N  0.28152271  0.83884692  0.84005918    -0.41400
N2652       N  0.29028985  0.82999461  0.54373355    -0.42900
H2653       H  0.31018942  0.82656581  0.96859317     0.13300
H2654       H  0.26206315  0.84673722  0.91505489     0.09800
H2655       H  0.26859464  0.85629605  0.52284122     0.10900
H2656       H  0.22201032  0.82631088  0.48703539     0.16700
C2657       C  0.51287566  0.93411139  0.65604036    -0.01500
C2658       C  0.51420638  0.92682745  0.62403065     0.07100
C2659       C  0.50185552  0.91775815  0.61168388    -0.07500
C2660       C  0.48793784  0.91642073  0.63022326     0.04500
C2661       C  0.48638353  0.92422914  0.66181424    -0.14700
C2662       C  0.49909318  0.93271259  0.67462905    -0.08100
C2663       C  0.52797401  0.92942981  0.60209362     0.05400
C2664       C  0.53865240  0.91735641  0.59729427    -0.09200
C2665       C  0.55127565  0.91918822  0.57501222     0.00400
C2666       C  0.55332385  0.93335684  0.55731446     0.00300
C2667       C  0.54304822  0.94567222  0.56351844    -0.12700
C2668       C  0.53030639  0.94374331  0.58536750     0.00800
C2669       C  0.56186640  0.90633332  0.57048390     0.40100
C2670       C  0.51923726  0.95626238  0.58860421     0.36700
C2671       C  0.52537130  0.94339326  0.66990653     0.36400
C2672       C  0.47528644  0.90769141  0.61538161     0.37200
N2673       N  0.57038208  0.89607001  0.56673896    -0.43600
N2674       N  0.51031126  0.96624908  0.59108459    -0.44100
N2675       N  0.46516895  0.90071863  0.60330073    -0.41400
N2676       N  0.53534055  0.95091153  0.68094018    -0.42900
H2677       H  0.49819831  0.93854475  0.69918324     0.13300
H2678       H  0.50291051  0.91216659  0.58688249     0.09800
H2679       H  0.53694195  0.90641567  0.61048233     0.10900
H2680       H  0.54437184  0.95646485  0.54960093     0.16700
C2681       C  0.48525492  0.93394721  0.85923792    -0.01500
C2682       C  0.49914161  0.92540195  0.85571091     0.07100
C2683       C  0.50109556  0.91554921  0.82764365    -0.07500
C2684       C  0.48978141  0.91466339  0.80215654     0.04500
C2685       C  0.47592109  0.92347662  0.80513053    -0.14700
C2686       C  0.47373682  0.93289397  0.83404145    -0.08100
C2687       C  0.51271498  0.92811210  0.87806000     0.05400
C2688       C  0.51744963  0.91647431  0.90080871    -0.09200
C2689       C  0.53117257  0.91817958  0.91971762     0.00400
C2690       C  0.54041972  0.93159012  0.91542967     0.00300
C2691       C  0.53540116  0.94341765  0.89348277    -0.12700
C2692       C  0.52174793  0.94169174  0.87451168     0.00800
C2693       C  0.53520663  0.90640863  0.94443324     0.40100
C2694       C  0.51758983  0.95361455  0.85025258     0.36700
C2695       C  0.48286681  0.94425665  0.88785182     0.36400
C2696       C  0.49346530  0.90577986  0.77186179     0.37200
N2697       N  0.53850024  0.89714973  0.96457411    -0.43600
N2698       N  0.51416650  0.96304301  0.83061074    -0.44100
N2699       N  0.49648671  0.89882474  0.74742734    -0.41400
N2700       N  0.48099954  0.95256943  0.91072649    -0.42900
H2701       H  0.46322078  0.93973447  0.83652646     0.13300
H2702       H  0.51194242  0.90925464  0.82462062     0.09800
H2703       H  0.51047377  0.90606028  0.90359786     0.10900
H2704       H  0.54241015  0.95380419  0.89036513     0.16700
C2705       C  0.39275295  0.88592195  0.78818445    -0.01500
C2706       C  0.39355795  0.87033477  0.77753089     0.07100
C2707       C  0.40468089  0.86592375  0.75322265    -0.07500
C2708       C  0.41512475  0.87681183  0.73966317     0.04500
C2709       C  0.41455677  0.89247011  0.75078752    -0.14700
C2710       C  0.40322956  0.89679136  0.77494751    -0.08100
C2711       C  0.38301736  0.85848018  0.79213548     0.05400
C2712       C  0.36730252  0.85853559  0.78269890    -0.09200
C2713       C  0.35672443  0.84821549  0.79774196     0.00400
C2714       C  0.36184066  0.83786490  0.82349288     0.00300
C2715       C  0.37770134  0.83764380  0.83221636    -0.12700
C2716       C  0.38830626  0.84766934  0.81642887     0.00800
C2717       C  0.34074561  0.84873531  0.78642206     0.40100
C2718       C  0.40453039  0.84672556  0.82573141     0.36700
C2719       C  0.38146724  0.89095209  0.81322818     0.36400
C2720       C  0.42636406  0.87142316  0.71490888     0.37200
N2721       N  0.32797864  0.84912992  0.77708069    -0.43600
N2722       N  0.41754762  0.84583400  0.83299630    -0.44100
N2723       N  0.43531685  0.86702297  0.69502438    -0.41400
N2724       N  0.37239872  0.89497994  0.83323610    -0.42900
H2725       H  0.40258524  0.90870936  0.78380473     0.13300
H2726       H  0.40523860  0.85390944  0.74499745     0.09800
H2727       H  0.36330159  0.86674971  0.76369052     0.10900
H2728       H  0.38188363  0.82954181  0.85126454     0.16700
C2729       C  0.98613178  0.03903997  0.86125089    -0.01500
C2730       C  0.98790804  0.05231172  0.88211692     0.07100
C2731       C  0.97646161  0.06390742  0.88126120    -0.07500
C2732       C  0.96387401  0.06286298  0.85861945     0.04500
C2733       C  0.96283420  0.05024937  0.83567439    -0.14700
C2734       C  0.97364989  0.03810302  0.83827794    -0.08100
C2735       C  0.00199056  0.05470312  0.90361177     0.05400
C2736       C  0.01272556  0.06628412  0.89437314    -0.09200
C2737       C  0.02661343  0.06842018  0.91270182     0.00400
C2738       C  0.02975249  0.05909557  0.94162524     0.00300
C2739       C  0.01876497  0.04770532  0.95106078    -0.12700
C2740       C  0.00510476  0.04537251  0.93230912     0.00800
C2741       C  0.03768254  0.07966531  0.90010149     0.40100
C2742       C  0.99456168  0.03318492  0.94273360     0.36700
C2743       C  0.99736838  0.02659317  0.86180783     0.36400
C2744       C  0.95202623  0.07473210  0.85967240     0.37200
N2745       N  0.04657424  0.08858179  0.88962089    -0.43600
N2746       N  0.98621252  0.02329062  0.95083329    -0.44100
N2747       N  0.94237121  0.08407853  0.86065509    -0.41400
N2748       N  0.00631830  0.01657235  0.86260847    -0.42900
H2749       H  0.97291453  0.02832195  0.82095094     0.13300
H2750       H  0.97750157  0.07389364  0.89795727     0.09800
H2751       H  0.01044433  0.07339400  0.87197510     0.10900
H2752       H  0.02092578  0.04033602  0.97309485     0.16700
C2753       C  0.02532660  0.04563081  0.61699672    -0.01500
C2754       C  0.02009573  0.05960816  0.63187162     0.07100
C2755       C  0.02853459  0.07332648  0.62673537    -0.07500
C2756       C  0.04144381  0.07351737  0.60502155     0.04500
C2757       C  0.04590922  0.05979715  0.58790309    -0.14700
C2758       C  0.03823909  0.04582206  0.59530182    -0.08100
C2759       C  0.00582577  0.06012916  0.65280556     0.05400
C2760       C  0.00586805  0.05266904  0.68446706    -0.09200
C2761       C  0.99246941  0.05219684  0.70453633     0.00400
C2762       C  0.97859395  0.05916622  0.69265265     0.00300
C2763       C  0.97875374  0.06727040  0.66156778    -0.12700
C2764       C  0.99225598  0.06777416  0.64151648     0.00800
C2765       C  0.99344324  0.04475816  0.73752788     0.40100
C2766       C  0.99177059  0.07562059  0.60892429     0.36700
C2767       C  0.01707951  0.03116812  0.62179598     0.36400
C2768       C  0.04987327  0.08789732  0.60062805     0.37200
N2769       N  0.99429245  0.03884840  0.76399949    -0.43600
N2770       N  0.99139078  0.08190644  0.58280967    -0.44100
N2771       N  0.05670714  0.09968165  0.09686833    -0.41400
N2772       N  0.01054162  0.01952963  0.62545994    -0.42900
H2773       H  0.04161260  0.03522965  0.58220871     0.13300
H2774       H  0.02480433  0.08396671  0.63918486     0.09800
H2775       H  0.01645422  0.04709906  0.69343139     0.10900
H2776       H  0.96815499  0.07271805  0.65229735     0.16700
C2777       C  0.10072549  0.01741817  0.88583530    -0.01500
C2778       C  0.09110596  0.00423828  0.88307680     0.07100
C2779       C  0.08001149  0.00122664  0.90853593    -0.07500
C2780       C  0.07790454  0.01157207  0.93578672     0.04500
C2781       C  0.08704524  0.02521955  0.93769062    -0.14700
C2782       C  0.09857426  0.02784693  0.91289553    -0.08100
C2783       C  0.09134219  0.99427830  0.85221371     0.05400
C2784       C  0.10062077  0.98092730  0.85172438    -0.09200
C2785       C  0.10016339  0.97072429  0.82379955     0.00400
C2786       C  0.09014303  0.97378053  0.79595813     0.00300
C2787       C  0.08147060  0.98759296  0.79584662    -0.12700
C2788       C  0.08198262  0.99779780  0.82371556     0.00800
C2789       C  0.11027389  0.95735410  0.82409845     0.40100
C2790       C  0.07245284  0.01159582  0.82308686     0.36700
C2791       C  0.11247425  0.02072411  0.86048469     0.36400
C2792       C  0.06533590  0.00861506  0.95951268     0.37200
N2793       N  0.11849676  0.94672456  0.82420953    -0.43600
N2794       N  0.06486583  0.02268532  0.82271883    -0.44100
N2795       N  0.05522026  0.00631884  0.97842363    -0.41400
N2796       N  0.12192483  0.02333310  0.84018607    -0.42900
H2797       H  0.10556296  0.03831517  0.91405682     0.13300
H2798       H  0.07252559  0.99115847  0.90623503     0.09800
H2799       H  0.10803937  0.97838785  0.87333397     0.10900
H2800       H  0.07369481  0.99004560  0.77479579     0.16700
C2801       C  0.13628808  0.13750427  0.57834200    -0.01500
C2802       C  0.14026440  0.12369621  0.56096662     0.07100
C2803       C  0.15588995  0.12112774  0.55213599    -0.07500
C2804       C  0.16741357  0.13217340  0.55960717     0.04500
C2805       C  0.16332192  0.14634581  0.57566099    -0.14700
C2806       C  0.14773083  0.14866831  0.58531054    -0.08100
C2807       C  0.12816150  0.11229923  0.55002615     0.05400
C2808       C  0.11616479  0.11739092  0.52852256    -0.09200
C2809       C  0.10454505  0.10722342  0.51712918     0.00400
C2810       C  0.10493991  0.09136192  0.52658798     0.00300
C2811       C  0.11697311  0.08628865  0.54830800    -0.12700
C2812       C  0.12847991  0.09656899  0.56007002     0.00800
C2813       C  0.09227379  0.11360839  0.49631427     0.40100
C2814       C  0.14026172  0.09078552  0.58304563     0.36700
C2815       C  0.12056422  0.14035691  0.58979904     0.36400
C2816       C  0.18334144  0.12839991  0.55126363     0.37200
N2817       N  0.08215126  0.11911337  0.98165726    -0.43600
N2818       N  0.14971102  0.08615163  0.60143453    -0.44100
N2819       N  0.19645536  0.12516192  0.04503730    -0.41400
N2820       N  0.10795891  0.14258533  0.59901256    -0.42900
H2821       H  0.14439410  0.15932641  0.59815058     0.13300
H2822       H  0.15941822  0.11042203  0.03874011     0.09800
H2823       H  0.11587464  0.12944495  0.52058292     0.10900
H2824       H  0.11738714  0.07426135  0.55633680     0.16700
C2825       C  0.48802471  0.07942065  0.87611681    -0.01500
C2826       C  0.49557890  0.06614835  0.86329723     0.07100
C2827       C  0.49016555  0.05139289  0.87261619    -0.07500
C2828       C  0.47767178  0.04966539  0.89531333     0.04500
C2829       C  0.47024426  0.06296182  0.90898437    -0.14700
C2830       C  0.47544927  0.07775373  0.89864396    -0.08100
C2831       C  0.50948006  0.06732750  0.84097338     0.05400
C2832       C  0.52351737  0.07280523  0.85475979    -0.09200
C2833       C  0.53711513  0.07328741  0.83499266     0.00400
C2834       C  0.53670714  0.06832121  0.80061997     0.00300
C2835       C  0.52260495  0.06288310  0.78690666    -0.12700
C2836       C  0.50906094  0.06236802  0.80670532     0.00800
C2837       C  0.55145895  0.07804224  0.85108559     0.40100
C2838       C  0.49480737  0.05688830  0.79132091     0.36700
C2839       C  0.49305143  0.09482696  0.86654034     0.36400
C2840       C  0.47341797  0.03411019  0.90539994     0.37200
N2841       N  0.56301720  0.08172693  0.86390597    -0.43600
N2842       N  0.48334919  0.05251735  0.77912399    -0.44100
N2843       N  0.47011971  0.02161284  0.91352099    -0.41400
N2844       N  0.49715395  0.10713158  0.85874896    -0.42900
H2845       H  0.46994022  0.08809062  0.90881670     0.13300
H2846       H  0.49604117  0.04118030  0.86284131     0.09800
H2847       H  0.52391069  0.07639096  0.88146400     0.10900
H2848       H  0.52212720  0.05905118  0.76041645     0.16700
C2849       C  0.52759423  0.08664592  0.62355965    -0.01500
C2850       C  0.52086362  0.07303618  0.61027827     0.07100
C2851       C  0.52813220  0.05870996  0.61577776    -0.07500
C2852       C  0.54135211  0.05759623  0.63636706     0.04500
C2853       C  0.54729852  0.07104336  0.65246789    -0.14700
C2854       C  0.54062229  0.08555401  0.64482399    -0.08100
C2855       C  0.50631813  0.07326977  0.59023048     0.05400
C2856       C  0.50724889  0.07004998  0.55532537    -0.09200
C2857       C  0.49380414  0.06811873  0.53589136     0.00400
C2858       C  0.47900034  0.06945751  0.55147839     0.00300
C2859       C  0.47803695  0.07337985  0.58621862    -0.12700
C2860       C  0.49159683  0.07514132  0.60580007     0.00800
C2861       C  0.49571816  0.06408995  0.99999615     0.40100
C2862       C  0.49016293  0.07802200  0.64202690     0.36700
C2863       C  0.52141429  0.10177668  0.61543256     0.36400
C2864       C  0.54802844  0.04241528  0.64165482     0.37200
N2865       N  0.49717658  0.06132491  0.97123628    -0.43600
N2866       N  0.48901572  0.08028507  0.67107534    -0.44100
N2867       N  0.55341503  0.03025350  0.64578018    -0.41400
N2868       N  0.51657924  0.11391468  0.60858295    -0.42900
H2869       H  0.54531298  0.09603656  0.65622721     0.13300
H2870       H  0.52318244  0.04827266  0.60457906     0.09800
H2871       H  0.51859703  0.06866483  0.54338173     0.10900
H2872       H  0.46670120  0.07436437  0.59839474     0.16700
C2873       C  0.41242287  0.01191086  0.59755559    -0.01500
C2874       C  0.42034856  0.99765718  0.59446462     0.07100
C2875       C  0.42965488  0.99501403  0.56556109    -0.07500
C2876       C  0.43206511  0.00665928  0.54112943     0.04500
C2877       C  0.42492477  0.02134800  0.54529277    -0.14700
C2878       C  0.41476206  0.02357443  0.57309239    -0.08100
C2879       C  0.42039718  0.98576326  0.62205076     0.05400
C2880       C  0.41509996  0.97073936  0.61461085    -0.09200
C2881       C  0.41784507  0.95839327  0.63711870     0.00400
C2882       C  0.42594470  0.96101585  0.66811710     0.00300
C2883       C  0.43021167  0.97630515  0.67660527    -0.12700
C2884       C  0.42776125  0.98857184  0.65369247     0.00800
C2885       C  0.41286944  0.94308021  0.62675037     0.40100
C2886       C  0.43426983  0.00359939  0.66177303     0.36700
C2887       C  0.40221368  0.01501671  0.62606662     0.36400
C2888       C  0.44291790  0.00349208  0.51380006     0.37200
N2889       N  0.40897988  0.93080172  0.61826297    -0.43600
N2890       N  0.43954121  0.01563907  0.66803140    -0.44100
N2891       N  0.45108996  0.00144097  0.99252068    -0.41400
N2892       N  0.39407652  0.01762397  0.64894417    -0.42900
H2893       H  0.40904607  0.03469824  0.57645730     0.13300
H2894       H  0.43575991  0.98405577  0.56304767     0.09800
H2895       H  0.40950078  0.96851419  0.59030390     0.10900
H2896       H  0.43653052  0.97853440  0.70003925     0.16700
C2897       C  0.26735268  0.14475936  0.75332973    -0.01500
C2898       C  0.26815754  0.15056511  0.71967793     0.07100
C2899       C  0.28199035  0.15750883  0.70844005    -0.07500
C2900       C  0.29445804  0.15984823  0.73082575     0.04500
C2901       C  0.29296242  0.15566574  0.76572345    -0.14700
C2902       C  0.27955519  0.14764515  0.77625194    -0.08100
C2903       C  0.25399413  0.15236132  0.69828589     0.05400
C2904       C  0.24249792  0.16257357  0.71008101    -0.09200
C2905       C  0.23017955  0.16706529  0.68909717     0.00400
C2906       C  0.22888488  0.16093162  0.65569180     0.00300
C2907       C  0.24018546  0.15039957  0.64401778    -0.12700
C2908       C  0.25275499  0.14615616  0.66499628     0.00800
C2909       C  0.22001263  0.17925243  0.70124999     0.40100
C2910       C  0.26439497  0.13569667  0.65173303     0.36700
C2911       C  0.25414328  0.13576161  0.76465597     0.36400
C2912       C  0.30815797  0.16752632  0.71759935     0.37200
N2913       N  0.21196972  0.18916546  0.71055600    -0.43600
N2914       N  0.27377472  0.12734856  0.64112433    -0.44100
N2915       N  0.31914869  0.17357760  0.70680121    -0.41400
N2916       N  0.24370711  0.12827411  0.77356020    -0.42900
H2917       H  0.27848257  0.14385873  0.80265794     0.13300
H2918       H  0.28272076  0.16196208  0.68246211     0.09800
H2919       H  0.24369652  0.16782759  0.73513430     0.10900
H2920       H  0.23937112  0.14575225  0.61834925     0.16700
C2921       C  0.37899133  0.13108642  0.88184443    -0.01500
C2922       C  0.37353422  0.11897411  0.90293412     0.07100
C2923       C  0.35743635  0.11691642  0.90706576    -0.07500
C2924       C  0.34679493  0.12691161  0.89118574     0.04500
C2925       C  0.35226742  0.13933090  0.87073206    -0.14700
C2926       C  0.36839405  0.14105332  0.86590973    -0.08100
C2927       C  0.38438474  0.10830485  0.92090787     0.05400
C2928       C  0.39379516  0.11409150  0.94725366    -0.09200
C2929       C  0.40426018  0.10441211  0.96460890     0.00400
C2930       C  0.40535687  0.08847236  0.95582283     0.00300
C2931       C  0.39566485  0.08271472  0.92974167    -0.12700
C2932       C  0.38537249  0.09246896  0.91218085     0.00800
C2933       C  0.41399569  0.11134244  0.99051186     0.40100
C2934       C  0.37653811  0.08618403  0.88402124     0.36700
C2935       C  0.39539858  0.13350279  0.87589093     0.36400
C2936       C  0.33039675  0.12391320  0.89594944     0.37200
N2937       N  0.42185886  0.11689177  0.01117756    -0.43600
N2938       N  0.36954395  0.08124028  0.86122561    -0.44100
N2939       N  0.31726950  0.12140523  0.89972908    -0.41400
N2940       N  0.40851330  0.13557897  0.87088175    -0.42900
H2941       H  0.37280928  0.15045441  0.85025336     0.13300
H2942       H  0.35319328  0.10752517  0.92295808     0.09800
H2943       H  0.39305695  0.12628684  0.95404417     0.10900
H2944       H  0.39642195  0.07060671  0.92226296     0.16700
C2945       C  0.82293203  0.26607071  0.98999092    -0.01500
C2946       C  0.83589580  0.25654193  0.98335445     0.07100
C2947       C  0.85033513  0.26026568  0.99762831    -0.07500
C2948       C  0.85190344  0.27290543  0.01972366     0.04500
C2949       C  0.83851841  0.28187091  0.52802446    -0.14700
C2950       C  0.82417048  0.27824776  0.51278434    -0.08100
C2951       C  0.83462827  0.24248550  0.96196450     0.05400
C2952       C  0.83188619  0.24418022  0.92694880    -0.09200
C2953       C  0.83038434  0.23117076  0.90593552     0.00400
C2954       C  0.83168971  0.21614207  0.92009887     0.00300
C2955       C  0.83491338  0.21445399  0.95497799    -0.12700
C2956       C  0.83625361  0.22750130  0.97606476     0.00800
C2957       C  0.82799372  0.23358357  0.86979411     0.40100
C2958       C  0.83865098  0.22527116  0.01224873     0.36700
C2959       C  0.80790599  0.26289468  0.97506000     0.36400
C2960       C  0.86720249  0.27601631  0.03338817     0.37200
N2961       N  0.82613607  0.23556573  0.84084419    -0.43600
N2962       N  0.84050470  0.22352546  0.04127459    -0.44100
N2963       N  0.87952288  0.27843389  0.04407532    -0.41400
N2964       N  0.79559450  0.25949272  0.46454521    -0.42900
H2965       H  0.81388519  0.28495619  0.51906948     0.13300
H2966       H  0.86037919  0.25310306  0.99179030     0.09800
H2967       H  0.83091292  0.25574033  0.91604582     0.10900
H2968       H  0.83584797  0.20290438  0.96598577     0.16700
C2969       C  0.85256374  0.24692353  0.68381706    -0.01500
C2970       C  0.83968275  0.24306359  0.70460830     0.07100
C2971       C  0.82745646  0.25369557  0.70808601    -0.07500
C2972       C  0.82775143  0.26790943  0.69100560     0.04500
C2973       C  0.84057516  0.27179980  0.67006841    -0.14700
C2974       C  0.85296507  0.26129106  0.66688609    -0.08100
C2975       C  0.83907098  0.22871418  0.72555472     0.05400
C2976       C  0.84966513  0.22712856  0.75242668    -0.09200
C2977       C  0.84767508  0.21561140  0.77724514     0.00400
C2978       C  0.83465147  0.20546559  0.77565414     0.00300
C2979       C  0.82457745  0.20651819  0.74751155    -0.12700
C2980       C  0.82679826  0.21791471  0.72238328     0.00800
C2981       C  0.85872588  0.21525724  0.80501553     0.40100
C2982       C  0.81634287  0.21838086  0.69357148     0.36700
C2983       C  0.86515542  0.23611111  0.67852944     0.36400
C2984       C  0.81493660  0.27850294  0.69625330     0.37200
N2985       N  0.86761887  0.21503222  0.82718873    -0.43600
N2986       N  0.80807000  0.21868311  0.67028090    -0.44100
N2987       N  0.80467948  0.28698716  0.70047552    -0.41400
N2988       N  0.87521439  0.22741607  0.67408969    -0.42900
H2989       H  0.86271615  0.26409409  0.65030024     0.13300
H2990       H  0.81769863  0.25094160  0.72471308     0.09800
H2991       H  0.85907393  0.23543179  0.75499665     0.10900
H2992       H  0.81478959  0.19864244  0.74544862     0.16700
C2993       C  0.86833317  0.36975179  0.53864419    -0.01500
C2994       C  0.88446689  0.37033893  0.54489196     0.07100
C2995       C  0.89110715  0.35967425  0.56764572    -0.07500
C2996       C  0.88202674  0.34823192  0.58348856     0.04500
C2997       C  0.86588217  0.34733999  0.57664770    -0.14700
C2998       C  0.85922104  0.35830370  0.55438359    -0.08100
C2999       C  0.89467713  0.38189886  0.52779456     0.05400
C3000       C  0.89282938  0.39768275  0.53542586    -0.09200
C3001       C  0.90271273  0.40887846  0.52112554     0.00400
C3002       C  0.91475202  0.40430748  0.49848461     0.00300
C3003       C  0.91623629  0.38850563  0.49009140    -0.12700
C3004       C  0.90642342  0.37732597  0.50469898     0.00800
C3005       C  0.90016342  0.42491704  0.53029469     0.40100
C3006       C  0.90867136  0.36120747  0.49581243     0.36700
C3007       C  0.86096021  0.38088997  0.01807119     0.36400
C3008       C  0.88974742  0.33727981  0.60560603     0.37200
N3009       N  0.89810545  0.43775976  0.53772558    -0.43600
N3010       N  0.91047845  0.34827021  0.48888800    -0.44100
N3011       N  0.89588703  0.32845062  0.62330429    -0.41400
N3012       N  0.85489281  0.38983140  0.00052459    -0.42900
H3013       H  0.84687428  0.35782760  0.54882382     0.13300
H3014       H  0.90351038  0.36019636  0.57271731     0.09800
H3015       H  0.88377414  0.40123262  0.55314115     0.10900
H3016       H  0.92539666  0.38477835  0.47283974     0.16700
C3017       C  0.93304036  0.50242155  0.80559460    -0.01500
C3018       C  0.92257438  0.50411044  0.83313855     0.07100
C3019       C  0.91280651  0.51708679  0.83448360    -0.07500
C3020       C  0.91381680  0.52871751  0.80954838     0.04500
C3021       C  0.92483330  0.52744122  0.78278473    -0.14700
C3022       C  0.93397735  0.51397018  0.78051153    -0.08100
C3023       C  0.92265288  0.49298573  0.86194869     0.05400
C3024       C  0.93080717  0.49694093  0.89167956    -0.09200
C3025       C  0.93374865  0.48581157  0.91693216     0.00400
C3026       C  0.92862685  0.47031678  0.91217969     0.00300
C3027       C  0.91932352  0.46680948  0.88365371    -0.12700
C3028       C  0.91622987  0.47803400  0.85874690     0.00800
C3029       C  0.94290531  0.49047973  0.94610795     0.40100
C3030       C  0.90680930  0.47390000  0.82963100     0.36700
C3031       C  0.94366033  0.48944740  0.80387661     0.36400
C3032       C  0.90347042  0.54184913  0.81220918     0.37200
N3033       N  0.95021541  0.49431126  0.96946014    -0.43600
N3034       N  0.89916099  0.47066810  0.80637756    -0.44100
N3035       N  0.89510093  0.55231749  0.81440614    -0.41400
N3036       N  0.95219721  0.47907707  0.80273409    -0.42900
H3037       H  0.94258404  0.51290890  0.76039558     0.13300
H3038       H  0.90468050  0.51830276  0.85549808     0.09800
H3039       H  0.93556057  0.50853946  0.89431492     0.10900
H3040       H  0.91498139  0.45509841  0.88003590     0.16700
C3041       C  0.82263793  0.72906314  0.70369524    -0.01500
C3042       C  0.83697238  0.72900521  0.72114077     0.07100
C3043       C  0.84751728  0.71689001  0.71580177    -0.07500
C3044       C  0.84434572  0.70531687  0.69168737     0.04500
C3045       C  0.83034708  0.70580816  0.67276645    -0.14700
C3046       C  0.81937835  0.71742315  0.67985485    -0.08100
C3047       C  0.84147475  0.74223223  0.74291284     0.05400
C3048       C  0.83762472  0.74193219  0.77761288    -0.09200
C3049       C  0.83880061  0.75540172  0.79733667     0.00400
C3050       C  0.84381528  0.76942439  0.78204369     0.00300
C3051       C  0.84909882  0.76929380  0.74816472    -0.12700
C3052       C  0.84784406  0.75581123  0.72842183     0.00800
C3053       C  0.83437755  0.75465729  0.83293323     0.40100
C3054       C  0.85204907  0.75639374  0.69271676     0.36700
C3055       C  0.81148459  0.74139965  0.70874750     0.36400
C3056       C  0.85569111  0.69317909  0.68657394     0.37200
N3057       N  0.83088576  0.75406456  0.86146879    -0.43600
N3058       N  0.85532095  0.75675431  0.66403733    -0.44100
N3059       N  0.86476306  0.68343197  0.68248116    -0.41400
N3060       N  0.80263478  0.75134475  0.71288905    -0.42900
H3061       H  0.80864750  0.71795557  0.66529245     0.13300
H3062       H  0.85846868  0.71680005  0.72960656     0.09800
H3063       H  0.83294168  0.73137226  0.78882786     0.10900
H3064       H  0.85303132  0.78001960  0.73629209     0.16700
C3065       C  0.81541636  0.76433537  0.94216708    -0.01500
C3066       C  0.82766176  0.76260455  0.96578946     0.07100
C3067       C  0.83952033  0.77377108  0.96708539    -0.07500
C3068       C  0.83976871  0.78612851  0.94387762     0.04500
C3069       C  0.82811988  0.78721325  0.91860994    -0.14700
C3070       C  0.81567196  0.77666909  0.91900408    -0.08100
C3071       C  0.82864056  0.74872498  0.48839222     0.05400
C3072       C  0.83868953  0.73682147  0.98040820    -0.09200
C3073       C  0.83901563  0.72287913  0.49947261     0.00400
C3074       C  0.82876737  0.72121405  0.52757200     0.00300
C3075       C  0.81885702  0.73364737  0.53609197    -0.12700
C3076       C  0.81869197  0.74727393  0.51673827     0.00800
C3077       C  0.84901837  0.71070391  0.98879154     0.40100
C3078       C  0.80804272  0.75955386  0.52592350     0.36700
C3079       C  0.80297975  0.75308733  0.93991264     0.36400
C3080       C  0.85196450  0.79762265  0.94648654     0.37200
N3081       N  0.85715979  0.70074146  0.98019203    -0.43600
N3082       N  0.79951271  0.76944024  0.53297102    -0.44100
N3083       N  0.86158003  0.80700200  0.94845854    -0.41400
N3084       N  0.79301243  0.74407860  0.93805712    -0.42900
H3085       H  0.80666349  0.77739720  0.89957658     0.13300
H3086       H  0.84874625  0.77266197  0.98593244     0.09800
H3087       H  0.84631191  0.73795913  0.95836856     0.10900
H3088       H  0.81097910  0.73266652  0.55770469     0.16700
C3089       C  0.85725134  0.62488527  0.65513997    -0.01500
C3090       C  0.87176120  0.62177261  0.63991485     0.07100
C3091       C  0.87546107  0.62867163  0.60846405    -0.07500
C3092       C  0.86516937  0.63912715  0.59285218     0.04500
C3093       C  0.85114681  0.64325273  0.60955631    -0.14700
C3094       C  0.84719337  0.63564791  0.64017503    -0.08100
C3095       C  0.88322220  0.61148387  0.65684232     0.05400
C3096       C  0.88037042  0.59546745  0.65801688    -0.09200
C3097       C  0.89072750  0.58541901  0.67453246     0.00400
C3098       C  0.90421188  0.59144141  0.69048409     0.00300
C3099       C  0.90682951  0.60754794  0.68986978    -0.12700
C3100       C  0.89655337  0.61754429  0.67303717     0.00800
C3101       C  0.88701015  0.56907371  0.67525833     0.40100
C3102       C  0.89990843  0.63397684  0.67283896     0.36700
C3103       C  0.85258898  0.61740305  0.68654324     0.36400
C3104       C  0.86908073  0.64499202  0.55937420     0.37200
N3105       N  0.88394279  0.55598884  0.67579554    -0.43600
N3106       N  0.90268212  0.64712860  0.67270340    -0.44100
N3107       N  0.87214457  0.64945861  0.53229742    -0.41400
N3108       N  0.84882680  0.61126897  0.71152842    -0.42900
H3109       H  0.83636990  0.63840453  0.65310720     0.13300
H3110       H  0.88641785  0.62585361  0.59611020     0.09800
H3111       H  0.87000233  0.59082630  0.64597302     0.10900
H3112       H  0.91716836  0.61232905  0.70176573     0.16700
C3113       C  0.70817875  0.26930221  0.96596682    -0.01500
C3114       C  0.69509701  0.26966426  0.98768086     0.07100
C3115       C  0.68483360  0.28206143  0.48644153    -0.07500
C3116       C  0.68758174  0.29457662  0.96345769     0.04500
C3117       C  0.70059752  0.29406541  0.94132704    -0.14700
C3118       C  0.71099300  0.28158758  0.94351710    -0.08100
C3119       C  0.69186543  0.25623102  0.51085403     0.05400
C3120       C  0.70035111  0.25494587  0.54117728    -0.09200
C3121       C  0.69974083  0.24134514  0.56063206     0.00400
C3122       C  0.69029972  0.22872479  0.54984432     0.00300
C3123       C  0.68112104  0.23044007  0.52045415    -0.12700
C3124       C  0.68201902  0.24398046  0.50068787     0.00800
C3125       C  0.70923399  0.24064164  0.59106457     0.40100
C3126       C  0.67364105  0.24463129  0.46879810     0.36700
C3127       C  0.71829456  0.25593924  0.96476874     0.36400
C3128       C  0.67671922  0.30736121  0.96259760     0.37200
N3129       N  0.71692078  0.24004422  0.61529119    -0.43600
N3130       N  0.66705935  0.24512887  0.44305551    -0.44100
N3131       N  0.66730938  0.31678527  0.46036706    -0.41400
N3132       N  0.72625372  0.24512607  0.96363090    -0.42900
H3133       H  0.72077272  0.28091040  0.92604828     0.13300
H3134       H  0.67468474  0.28220491  0.50286120     0.09800
H3135       H  0.70797997  0.26434525  0.54884018     0.10900
H3136       H  0.67387845  0.22089202  0.51188785     0.16700
C3137       C  0.69038117  0.27012280  0.74029411    -0.01500
C3138       C  0.69242804  0.25507990  0.75382315     0.07100
C3139       C  0.69588932  0.25322707  0.78849839    -0.07500
C3140       C  0.69752756  0.26611789  0.80979044     0.04500
C3141       C  0.69563967  0.28119717  0.79625195    -0.14700
C3142       C  0.69182216  0.28303597  0.76168691    -0.08100
C3143       C  0.69165726  0.24111153  0.73205680     0.05400
C3144       C  0.70524536  0.23245973  0.72686964    -0.09200
C3145       C  0.70528924  0.21959261  0.70509964     0.00400
C3146       C  0.69152896  0.21542170  0.68751381     0.00300
C3147       C  0.67773021  0.22365980  0.69437004    -0.12700
C3148       C  0.67766324  0.23628730  0.71677477     0.00800
C3149       C  0.71967534  0.21114942  0.70104526     0.40100
C3150       C  0.66310896  0.24395525  0.72426194     0.36700
C3151       C  0.68755482  0.27263974  0.70435659     0.36400
C3152       C  0.70085571  0.26348467  0.84548015     0.37200
N3153       N  0.73118926  0.20432598  0.69801896    -0.43600
N3154       N  0.65145928  0.25004612  0.73060712    -0.44100
N3155       N  0.70349519  0.26130453  0.87405634    -0.41400
N3156       N  0.68533261  0.27475257  0.67557723    -0.42900
H3157       H  0.69056925  0.29461212  0.75106295     0.13300
H3158       H  0.69740513  0.24164378  0.79886937     0.09800
H3159       H  0.71594481  0.23596356  0.73948740     0.10900
H3160       H  0.66696239  0.22042687  0.68172004     0.16700
C3161       C  0.79515360  0.32712452  0.73240261    -0.01500
C3162       C  0.78037500  0.33229849  0.72168544     0.07100
C3163       C  0.77822392  0.33639191  0.68724525    -0.07500
C3164       C  0.79012298  0.33430676  0.66316062     0.04500
C3165       C  0.80480953  0.32878481  0.67378940    -0.14700
C3166       C  0.80725813  0.32577209  0.70867270    -0.08100
C3167       C  0.76675553  0.33230738  0.74528942     0.05400
C3168       C  0.76747215  0.34056828  0.77631236    -0.09200
C3169       C  0.75513982  0.33997080  0.79989309     0.00400
C3170       C  0.74169216  0.33128650  0.79211882     0.00300
C3171       C  0.74083644  0.32341911  0.76075003    -0.12700
C3172       C  0.75320614  0.32369809  0.73762346     0.00800
C3173       C  0.75637530  0.34870021  0.83123685     0.40100
C3174       C  0.75187515  0.31447285  0.70690086     0.36700
C3175       C  0.79790241  0.32191286  0.76694049     0.36400
C3176       C  0.78670260  0.33744462  0.62773187     0.37200
N3177       N  0.75737040  0.35577919  0.85627835    -0.43600
N3178       N  0.75073479  0.30711549  0.68227565    -0.44100
N3179       N  0.78383357  0.33984341  0.59934155    -0.41400
N3180       N  0.80010397  0.31765591  0.79455065    -0.42900
H3181       H  0.81836965  0.32128835  0.71717485     0.13300
H3182       H  0.76698107  0.34057056  0.67889216     0.09800
H3183       H  0.77771372  0.34737857  0.78219200     0.10900
H3184       H  0.73064801  0.31653413  0.75474316     0.16700
C3185       C  0.64810283  0.36258976  0.88744185    -0.01500
C3186       C  0.65263517  0.37613947  0.90489465     0.07100
C3187       C  0.66846535  0.37919750  0.91021665    -0.07500
C3188       C  0.67985791  0.36897241  0.89806109     0.04500
C3189       C  0.67536158  0.35544522  0.88007967    -0.14700
C3190       C  0.65943153  0.35246031  0.87497862    -0.08100
C3191       C  0.64100401  0.38744311  0.91715018     0.05400
C3192       C  0.63814298  0.38871658  0.95231120    -0.09200
C3193       C  0.62680742  0.39895523  0.96467852     0.00400
C3194       C  0.61844178  0.40834825  0.94156572     0.00300
C3195       C  0.62163518  0.40727072  0.90643682    -0.12700
C3196       C  0.63266371  0.39679066  0.89408001     0.00800
C3197       C  0.62416439  0.39972997  0.00107014     0.40100
C3198       C  0.63505859  0.39563404  0.85761954     0.36700
C3199       C  0.63189075  0.35867565  0.88272500     0.36400
C3200       C  0.69597760  0.37278373  0.90420187     0.37200
N3201       N  0.62202133  0.40033329  0.03023997    -0.43600
N3202       N  0.63688291  0.39456702  0.82841007    -0.44100
N3203       N  0.70889248  0.37585443  0.90919223    -0.41400
N3204       N  0.61890195  0.35554473  0.87899302    -0.42900
H3205       H  0.65575220  0.34200360  0.86192635     0.13300
H3206       H  0.67189704  0.38963622  0.92366972     0.09800
H3207       H  0.64460251  0.38151098  0.97001108     0.10900
H3208       H  0.61515812  0.41430318  0.88843217     0.16700
C3209       C  0.67838022  0.76457174  0.72631773    -0.01500
C3210       C  0.68335702  0.74984272  0.71479160     0.07100
C3211       C  0.68873466  0.74824876  0.68116052    -0.07500
C3212       C  0.68971381  0.76109961  0.65939388     0.04500
C3213       C  0.68519550  0.77597422  0.67123292    -0.14700
C3214       C  0.67921454  0.77744781  0.70444756    -0.08100
C3215       C  0.68320754  0.73597471  0.73743754     0.05400
C3216       C  0.66894321  0.73029467  0.74960239    -0.09200
C3217       C  0.66836178  0.71756449  0.77186573     0.00400
C3218       C  0.68231952  0.71026972  0.78248714     0.00300
C3219       C  0.69653129  0.71558893  0.76905280    -0.12700
C3220       C  0.69707845  0.72834976  0.74687893     0.00800
C3221       C  0.65324549  0.71225624  0.78310384     0.40100
C3222       C  0.71209084  0.73389003  0.73556094     0.36700
C3223       C  0.67309978  0.76690542  0.76096667     0.36400
C3224       C  0.69508254  0.75855958  0.62482354     0.37200
N3225       N  0.64111466  0.70800375  0.79199669    -0.43600
N3226       N  0.72413518  0.73834006  0.72658950    -0.44100
N3227       N  0.69935885  0.75646040  0.59714531    -0.41400
N3228       N  0.66891911  0.76881261  0.78877269    -0.42900
H3229       H  0.67573122  0.78879008  0.71379289     0.13300
H3230       H  0.69227627  0.73690487  0.67197322     0.09800
H3231       H  0.65825092  0.73590224  0.74184181     0.10900
H3232       H  0.70731298  0.71020088  0.77696059     0.16700
C3233       C  0.69022585  0.76846917  0.98341952    -0.01500
C3234       C  0.67788555  0.75789463  0.98843354     0.07100
C3235       C  0.66689240  0.76081336  0.51368578    -0.07500
C3236       C  0.66836815  0.77363859  0.53534945     0.04500
C3237       C  0.68131658  0.78377115  0.53185146    -0.14700
C3238       C  0.69185218  0.78124143  0.00517536    -0.08100
C3239       C  0.67724092  0.74301439  0.96958545     0.05400
C3240       C  0.68963421  0.73264605  0.97354949    -0.09200
C3241       C  0.69031081  0.71897060  0.95460481     0.00400
C3242       C  0.67811687  0.71520942  0.93193284     0.00300
C3243       C  0.66521108  0.72511194  0.92943855    -0.12700
C3244       C  0.66478321  0.73909632  0.94778259     0.00800
C3245       C  0.70383806  0.70920391  0.95849348     0.40100
C3246       C  0.65203225  0.74969158  0.94226827     0.36700
C3247       C  0.70144822  0.76631283  0.95631842     0.36400
C3248       C  0.65686311  0.77543076  0.56200958     0.37200
N3249       N  0.71483011  0.70160371  0.96166225    -0.43600
N3250       N  0.64190016  0.75829327  0.93784473    -0.44100
N3251       N  0.64757437  0.77675614  0.58325851    -0.41400
N3252       N  0.71039437  0.76453416  0.93453644    -0.42900
H3253       H  0.70168239  0.78901482  0.00176670     0.13300
H3254       H  0.65739580  0.75266588  0.51749418     0.09800
H3255       H  0.69908493  0.73550943  0.99089364     0.10900
H3256       H  0.65590653  0.72237092  0.91164829     0.16700
C3257       C  0.73049636  0.66406153  0.97955853    -0.01500
C3258       C  0.74518528  0.65966306  0.96645014     0.07100
C3259       C  0.74628032  0.65512356  0.93199199    -0.07500
C3260       C  0.73356086  0.65660543  0.90988134     0.04500
C3261       C  0.71921953  0.66211086  0.92249465    -0.14700
C3262       C  0.71764770  0.66495193  0.95768086    -0.08100
C3263       C  0.75970933  0.66122511  0.98709529     0.05400
C3264       C  0.76091173  0.65408986  0.51942049    -0.09200
C3265       C  0.77385268  0.65667942  0.54057820     0.00400
C3266       C  0.78631522  0.66590930  0.52876143     0.00300
C3267       C  0.78556116  0.67236907  0.49593010    -0.12700
C3268       C  0.77230860  0.67038189  0.97536809     0.00800
C3269       C  0.77410995  0.64966361  0.57404963     0.40100
C3270       C  0.77181424  0.67859179  0.94319710     0.36700
C3271       C  0.72861438  0.66875684  0.51454215     0.36400
C3272       C  0.73557988  0.65256759  0.87436181     0.37200
N3273       N  0.77430537  0.64407812  0.60093135    -0.43600
N3274       N  0.77148441  0.68517441  0.91743904    -0.44100
N3275       N  0.73716694  0.64931036  0.84588187    -0.41400
N3276       N  0.72695283  0.67254329  0.54268996    -0.42900
H3277       H  0.70662894  0.66903704  0.96773769     0.13300
H3278       H  0.75733841  0.65116065  0.92193836     0.09800
H3279       H  0.75149080  0.64682433  0.52844140     0.10900
H3280       H  0.79496344  0.67966204  0.48685166     0.16700
C3281       C  0.60084530  0.52895793  0.58275033    -0.01500
C3282       C  0.59708742  0.51326256  0.58891213     0.07100
C3283       C  0.59033410  0.50912453  0.62026242    -0.07500
C3284       C  0.58633202  0.52038947  0.64443749     0.04500
C3285       C  0.58904383  0.53627436  0.63733540    -0.14700
C3286       C  0.59672311  0.54029782  0.60677690    -0.08100
C3287       C  0.59876619  0.50097218  0.56250620     0.05400
C3288       C  0.60696620  0.48738298  0.57074749    -0.09200
C3289       C  0.60608123  0.47420141  0.54983287     0.00400
C3290       C  0.59723607  0.47468513  0.51944723     0.00300
C3291       C  0.58998177  0.48862994  0.51005344    -0.12700
C3292       C  0.59030373  0.50155825  0.53162731     0.00800
C3293       C  0.61387130  0.46023697  0.56087730     0.40100
C3294       C  0.58047742  0.51458599  0.52312396     0.36700
C3295       C  0.60869746  0.53375024  0.55184384     0.36400
C3296       C  0.57880893  0.51520917  0.67542651     0.37200
N3297       N  0.62005706  0.44904898  0.56994815    -0.43600
N3298       N  0.57251483  0.52494784  0.51626524    -0.44100
N3299       N  0.57277601  0.51099687  0.70020988    -0.41400
N3300       N  0.61492576  0.53765928  0.52705195    -0.42900
H3301       H  0.59910816  0.55236707  0.60108520     0.13300
H3302       H  0.58753100  0.49707447  0.62524600     0.09800
H3303       H  0.61336620  0.48681482  0.59452157     0.10900
H3304       H  0.58292319  0.48905405  0.48717231     0.16700
C3305       C  0.62165541  0.59758709  0.78370356    -0.01500
C3306       C  0.62483060  0.61318025  0.77561545     0.07100
C3307       C  0.61665758  0.62034241  0.74896483    -0.07500
C3308       C  0.60521796  0.61229053  0.73066189     0.04500
C3309       C  0.60213294  0.59652373  0.73828529    -0.14700
C3310       C  0.61054010  0.58936015  0.76482973    -0.08100
C3311       C  0.63572413  0.62270605  0.79615419     0.05400
C3312       C  0.65183216  0.62065260  0.79246112    -0.09200
C3313       C  0.66233288  0.63071295  0.80876672     0.00400
C3314       C  0.65663656  0.64300752  0.82933649     0.00300
C3315       C  0.64052139  0.64434337  0.83452006    -0.12700
C3316       C  0.63009987  0.63445188  0.81790876     0.00800
C3317       C  0.67879529  0.62817146  0.80376389     0.40100
C3318       C  0.61361886  0.63688828  0.82267268     0.36700
C3319       C  0.62898312  0.59007737  0.81244728     0.36400
C3320       C  0.59638074  0.62080794  0.70557336     0.37200
N3321       N  0.69198244  0.62610047  0.79977470    -0.43600
N3322       N  0.60040277  0.63887829  0.82625953    -0.44100
N3323       N  0.58920657  0.62773123  0.68577022    -0.41400
N3324       N  0.63469766  0.58406752  0.83568969    -0.42900
H3325       H  0.60817403  0.57737753  0.77153560     0.13300
H3326       H  0.61890527  0.63245339  0.74320335     0.09800
H3327       H  0.65616924  0.61149838  0.77601080     0.10900
H3328       H  0.63595564  0.65362474  0.85032424     0.16700
C3329       C  0.18803036  0.73441199  0.96405656    -0.01500
C3330       C  0.17979376  0.74801588  0.95506607     0.07100
C3331       C  0.17148562  0.74832633  0.92431858    -0.07500
C3332       C  0.17178517  0.73564222  0.90196191     0.04500
C3333       C  0.18046878  0.72220570  0.91040171    -0.14700
C3334       C  0.18837260  0.72170094  0.94168876    -0.08100
C3335       C  0.18139710  0.76321872  0.47421406     0.05400
C3336       C  0.19646613  0.76917601  0.47818036    -0.09200
C3337       C  0.19920855  0.78253823  0.49739667     0.00400
C3338       C  0.18664259  0.79037139  0.51307723     0.00300
C3339       C  0.17141761  0.78498647  0.50743610    -0.12700
C3340       C  0.16869273  0.77150601  0.48813304     0.00800
C3341       C  0.21505500  0.78802605  0.50006006     0.40100
C3342       C  0.15286483  0.76620982  0.48389867     0.36700
C3343       C  0.19604893  0.73395158  0.49580952     0.36400
C3344       C  0.16420534  0.73733630  0.86923987     0.37200
N3345       N  0.22777759  0.79235494  0.50203924    -0.43600
N3346       N  0.14012865  0.76211053  0.48047511    -0.44100
N3347       N  0.15825483  0.73869152  0.84290296    -0.41400
N3348       N  0.20276408  0.73328734  0.52137269    -0.42900
H3349       H  0.19502611  0.71147203  0.94842715     0.13300
H3350       H  0.16545352  0.75883974  0.91686797     0.09800
H3351       H  0.20638109  0.76280677  0.96700534     0.10900
H3352       H  0.16166659  0.79099026  0.51915698     0.16700
C3353       C  0.20413038  0.77246230  0.69204885    -0.01500
C3354       C  0.18960048  0.76734185  0.70471948     0.07100
C3355       C  0.17614347  0.77571501  0.69637095    -0.07500
C3356       C  0.17689573  0.78866619  0.67479491     0.04500
C3357       C  0.19138930  0.79346068  0.66110047    -0.14700
C3358       C  0.20490476  0.78542376  0.67055580    -0.08100
C3359       C  0.18827944  0.75348534  0.72723540     0.05400
C3360       C  0.19628302  0.75345181  0.75838914    -0.09200
C3361       C  0.19587098  0.74051128  0.77991661     0.00400
C3362       C  0.18709637  0.72723267  0.77058863     0.00300
C3363       C  0.17866938  0.72745681  0.73989419    -0.12700
C3364       C  0.17928346  0.74037947  0.71812051     0.00800
C3365       C  0.20433484  0.74141616  0.81173166     0.40100
C3366       C  0.17104217  0.73968911  0.68604031     0.36700
C3367       C  0.21836872  0.76428940  0.69965428     0.36400
C3368       C  0.16264265  0.79692421  0.66767100     0.37200
N3369       N  0.21114558  0.74214817  0.83717215    -0.43600
N3370       N  0.16443875  0.73912644  0.66032229    -0.44100
N3371       N  0.15124877  0.80359177  0.66201173    -0.41400
N3372       N  0.22981658  0.75780730  0.70577182    -0.42900
H3373       H  0.21607827  0.78892053  0.66015404     0.13300
H3374       H  0.16500976  0.77209873  0.70675338     0.09800
H3375       H  0.20293842  0.76359462  0.76585447     0.10900
H3376       H  0.17189681  0.71737893  0.73247572     0.16700
C3377       C  0.98448527  0.55929151  0.59765623    -0.01500
C3378       C  0.99524128  0.57167829  0.59904250     0.07100
C3379       C  0.99236302  0.58419704  0.62090664    -0.07500
C3380       C  0.97972614  0.58399002  0.64338909     0.04500
C3381       C  0.96955033  0.57099171  0.64401641    -0.14700
C3382       C  0.97179775  0.55902307  0.62012746    -0.08100
C3383       C  0.01018223  0.57136754  0.58008428     0.05400
C3384       C  0.01370756  0.58344628  0.55724116    -0.09200
C3385       C  0.02783431  0.58359512  0.53933852     0.00400
C3386       C  0.03855645  0.57140154  0.54405909     0.00300
C3387       C  0.03521584  0.55959287  0.56755087    -0.12700
C3388       C  0.02132412  0.55965314  0.58607080     0.00800
C3389       C  0.03045505  0.59552029  0.01506901     0.40100
C3390       C  0.01896820  0.54781723  0.61170781     0.36700
C3391       C  0.98649516  0.54649578  0.57420121     0.36400
C3392       C  0.97830564  0.59685140  0.66689266     0.37200
N3393       N  0.03277223  0.60532927  0.99550502    -0.43600
N3394       N  0.01705847  0.53834626  0.63225777    -0.44100
N3395       N  0.97732239  0.60716540  0.68573797    -0.41400
N3396       N  0.98817687  0.53616169  0.55565554    -0.42900
H3397       H  0.96399127  0.54913334  0.61984990     0.13300
H3398       H  0.00052948  0.59381073  0.62172122     0.09800
H3399       H  0.00531473  0.59263486  0.55307620     0.10900
H3400       H  0.04353243  0.55028601  0.57147494     0.16700
C3401       C  0.98932333  0.57470462  0.84518868    -0.01500
C3402       C  0.00419086  0.57041608  0.83298869     0.07100
C3403       C  0.00603081  0.56640830  0.79853592    -0.07500
C3404       C  0.99328697  0.56627795  0.77636881     0.04500
C3405       C  0.97830136  0.57011276  0.78877405    -0.14700
C3406       C  0.97654934  0.57465365  0.82296899    -0.08100
C3407       C  0.01790807  0.56952569  0.85586941     0.05400
C3408       C  0.02461210  0.55497888  0.86244692    -0.09200
C3409       C  0.03730809  0.55351268  0.88470482     0.00400
C3410       C  0.04352744  0.56685448  0.90080625     0.00300
C3411       C  0.03702517  0.58145164  0.89317187    -0.12700
C3412       C  0.02441319  0.58288010  0.87089843     0.00800
C3413       C  0.04344188  0.53817263  0.89078364     0.40100
C3414       C  0.01847979  0.59820244  0.86359604     0.36700
C3415       C  0.98677703  0.57848353  0.88069799     0.36400
C3416       C  0.99597967  0.56249178  0.74085421     0.37200
N3417       N  0.04832018  0.52584173  0.89549714    -0.43600
N3418       N  0.01377626  0.61050846  0.85784650    -0.44100
N3419       N  0.99810556  0.55952144  0.71237975    -0.41400
N3420       N  0.98475177  0.58151204  0.90916813    -0.42900
H3421       H  0.96507276  0.57754488  0.83270179     0.13300
H3422       H  0.01747662  0.56330122  0.78899936     0.09800
H3423       H  0.01973045  0.54470963  0.85055112     0.10900
H3424       H  0.04166961  0.59185623  0.90493697     0.16700
C3425       C  0.12353703  0.60553910  0.89355499    -0.01500
C3426       C  0.12902409  0.61815937  0.91306260     0.07100
C3427       C  0.12489856  0.61926795  0.94765098    -0.07500
C3428       C  0.11526047  0.60814978  0.96284597     0.04500
C3429       C  0.10901690  0.59596626  0.94289168    -0.14700
C3430       C  0.11348515  0.59465859  0.90842912    -0.08100
C3431       C  0.13920391  0.63027917  0.89802541     0.05400
C3432       C  0.13349572  0.63950649  0.87135414    -0.09200
C3433       C  0.14259072  0.65135083  0.85708210     0.00400
C3434       C  0.15774357  0.65420567  0.86982274     0.00300
C3435       C  0.16342847  0.64479917  0.89641943    -0.12700
C3436       C  0.15434119  0.63292782  0.91046546     0.00800
C3437       C  0.13594123  0.66037798  0.82969690     0.40100
C3438       C  0.16084751  0.62341473  0.93725812     0.36700
C3439       C  0.12847845  0.60329231  0.85861457     0.36400
C3440       C  0.11263030  0.60914584  0.99923251     0.37200
N3441       N  0.13059277  0.66758048  0.80770716    -0.43600
N3442       N  0.16590815  0.61572711  0.95877510    -0.44100
N3443       N  0.11071032  0.60980734  0.02847105    -0.41400
N3444       N  0.13260405  0.60151392  0.83072526    -0.42900
H3445       H  0.10902653  0.58521854  0.89296493     0.13300
H3446       H  0.12935270  0.62879123  0.96288886     0.09800
H3447       H  0.12178972  0.63751554  0.86185584     0.10900
H3448       H  0.17505135  0.64669478  0.90641057     0.16700
C3449       C  0.34636432  0.73237742  0.04391288    -0.01500
C3450       C  0.33813440  0.73475188  0.01330562     0.07100
C3451       C  0.32853452  0.72291912  0.00056907    -0.07500
C3452       C  0.32652440  0.70919677  0.51896260     0.04500
C3453       C  0.33361648  0.70734428  0.55118193    -0.14700
C3454       C  0.34399969  0.71866914  0.06246602    -0.08100
C3455       C  0.33845694  0.74974161  0.99486686     0.05400
C3456       C  0.35209347  0.75448300  0.97815008    -0.09200
C3457       C  0.35199857  0.76736581  0.95628849     0.00400
C3458       C  0.33799489  0.77561315  0.95088270     0.00300
C3459       C  0.32462906  0.77135426  0.96934131    -0.12700
C3460       C  0.32478121  0.75860512  0.99132211     0.00800
C3461       C  0.36610434  0.77108088  0.93795267     0.40100
C3462       C  0.31067719  0.75457479  0.00945953     0.36700
C3463       C  0.35656275  0.74417144  0.05762175     0.36400
C3464       C  0.31657929  0.69743122  0.50435468     0.37200
N3465       N  0.37743453  0.77400199  0.92326463    -0.43600
N3466       N  0.29967979  0.75103042  0.52365421    -0.44100
N3467       N  0.30861628  0.68803508  0.49246040    -0.41400
N3468       N  0.36473560  0.75364834  0.06849681    -0.42900
H3469       H  0.34968947  0.71748148  0.58745766     0.13300
H3470       H  0.32254056  0.72459083  0.97649721     0.09800
H3471       H  0.36262586  0.74767305  0.98094337     0.10900
H3472       H  0.31386782  0.77774580  0.96584538     0.16700
C3473       C  0.34344088  0.72404673  0.72147211    -0.01500
C3474       C  0.33093915  0.72914301  0.74197065     0.07100
C3475       C  0.31685259  0.72090802  0.74171462    -0.07500
C3476       C  0.31491447  0.70802382  0.72042905     0.04500
C3477       C  0.32743609  0.70294020  0.69992309    -0.14700
C3478       C  0.34173405  0.71074711  0.70135367    -0.08100
C3479       C  0.33196603  0.74345283  0.76268080     0.05400
C3480       C  0.32242062  0.75607068  0.75419609    -0.09200
C3481       C  0.32249329  0.76961487  0.77396647     0.00400
C3482       C  0.33227909  0.77060678  0.80282307     0.00300
C3483       C  0.34207929  0.75804519  0.81076043    -0.12700
C3484       C  0.34188927  0.74448705  0.79115594     0.00800
C3485       C  0.31270208  0.78235768  0.76354613     0.40100
C3486       C  0.35145943  0.73155779  0.80158441     0.36700
C3487       C  0.35756955  0.73301977  0.71827497     0.36400
C3488       C  0.29986718  0.70051939  0.71938861     0.37200
N3489       N  0.30486147  0.79254600  0.75497431    -0.43600
N3490       N  0.35909187  0.72116953  0.80990249    -0.44100
N3491       N  0.28775913  0.69463239  0.71839463    -0.41400
N3492       N  0.36882102  0.74029166  0.71525984    -0.42900
H3493       H  0.35117666  0.70717191  0.68475383     0.13300
H3494       H  0.30724019  0.72485945  0.75733995     0.09800
H3495       H  0.31487232  0.75529061  0.73210241     0.10900
H3496       H  0.34954946  0.75860391  0.83293520     0.16700
C3497       C  0.25465455  0.66466848  0.67759298    -0.01500
C3498       C  0.25562193  0.65613515  0.70830593     0.07100
C3499       C  0.26881986  0.64706425  0.71449807    -0.07500
C3500       C  0.28157615  0.64746875  0.69227303     0.04500
C3501       C  0.28123566  0.65717547  0.66304010    -0.14700
C3502       C  0.26739650  0.66508798  0.65525697    -0.08100
C3503       C  0.24376255  0.65790408  0.73566728     0.05400
C3504       C  0.22841718  0.65310587  0.72967907    -0.09200
C3505       C  0.21653586  0.65675614  0.75288099     0.00400
C3506       C  0.21993199  0.66571055  0.78232085     0.00300
C3507       C  0.23551327  0.66925327  0.78968659    -0.12700
C3508       C  0.24740548  0.66538028  0.76678065     0.00800
C3509       C  0.20102993  0.65114810  0.74576236     0.40100
C3510       C  0.26312319  0.66998868  0.77503762     0.36700
C3511       C  0.24117201  0.67398163  0.66963072     0.36400
C3512       C  0.29509391  0.63841031  0.70125135     0.37200
N3513       N  0.18864404  0.64650870  0.74017911    -0.43600
N3514       N  0.27570636  0.67359369  0.78197654    -0.44100
N3515       N  0.30596975  0.63121478  0.70844907    -0.41400
N3516       N  0.23035200  0.68140649  0.66319030    -0.42900
H3517       H  0.26684810  0.67247313  0.63281420     0.13300
H3518       H  0.26944940  0.64021507  0.73778998     0.09800
H3519       H  0.22566912  0.64687838  0.70638945     0.10900
H3520       H  0.23835618  0.67583381  0.81244343     0.16700
C3521       C  0.49182892  0.57936839  0.52336051    -0.01500
C3522       C  0.49295270  0.57162418  0.55491671     0.07100
C3523       C  0.48005597  0.56336878  0.56757024    -0.07500
C3524       C  0.46624939  0.56242287  0.54871681     0.04500
C3525       C  0.46529355  0.56987030  0.51675250    -0.14700
C3526       C  0.47803520  0.57851560  0.50470991    -0.08100
C3527       C  0.50741330  0.57210990  0.57532647     0.05400
C3528       C  0.51253728  0.58636748  0.58856783    -0.09200
C3529       C  0.52561503  0.58714263  0.60978748     0.00400
C3530       C  0.53353296  0.57337874  0.61859156     0.00300
C3531       C  0.52868171  0.55920857  0.60428309    -0.12700
C3532       C  0.51587568  0.55850624  0.58244002     0.00800
C3533       C  0.53017080  0.60205800  0.62329314     0.40100
C3534       C  0.51184958  0.54378629  0.56706608     0.36700
C3535       C  0.50487332  0.58766859  0.50886712     0.36400
C3536       C  0.45312719  0.55422649  0.56313304     0.37200
N3537       N  0.53383658  0.61404507  0.63397402    -0.43600
N3538       N  0.50875179  0.53200637  0.55454642    -0.44100
N3539       N  0.44232666  0.54825913  0.07565797    -0.41400
N3540       N  0.51530586  0.59431330  0.49714689    -0.42900
H3541       H  0.47745769  0.58410935  0.47991200     0.13300
H3542       H  0.48081161  0.55766615  0.59217673     0.09800
H3543       H  0.50609154  0.59687246  0.58284054     0.10900
H3544       H  0.53489776  0.54860016  0.61029480     0.16700
C3545       C  0.49601685  0.57287646  0.86895960    -0.01500
C3546       C  0.49427552  0.57454914  0.83342682     0.07100
C3547       C  0.47932296  0.57511623  0.81912706    -0.07500
C3548       C  0.46609376  0.57352858  0.83980556     0.04500
C3549       C  0.46788057  0.57133414  0.87525033    -0.14700
C3550       C  0.48285173  0.57119751  0.88953991    -0.08100
C3551       C  0.50797439  0.57424864  0.81069520     0.05400
C3552       C  0.51566800  0.56009438  0.80584921    -0.09200
C3553       C  0.52863064  0.55905902  0.78437917     0.00400
C3554       C  0.53408868  0.57247306  0.76726020     0.00300
C3555       C  0.52647987  0.58672502  0.77287198    -0.12700
C3556       C  0.51350453  0.58769140  0.79434988     0.00800
C3557       C  0.53571723  0.54400297  0.77989520     0.40100
C3558       C  0.50612606  0.60256570  0.79946144     0.36700
C3559       C  0.51122967  0.57270379  0.88462372     0.36400
C3560       C  0.45095169  0.57300166  0.82393387     0.37200
N3561       N  0.54135105  0.53191086  0.77633729    -0.43600
N3562       N  0.50024388  0.61450223  0.80356635    -0.44100
N3563       N  0.43879618  0.57245687  0.81129793    -0.41400
N3564       N  0.52346824  0.57261270  0.89692265    -0.42900
H3565       H  0.48426072  0.56962844  0.91690155     0.13300
H3566       H  0.47802951  0.57622335  0.79159931     0.09800
H3567       H  0.51138555  0.54976753  0.81868721     0.10900
H3568       H  0.53053625  0.59715974  0.76011067     0.16700
C3569       C  0.37660670  0.58977872  0.52832355    -0.01500
C3570       C  0.37390134  0.60534418  0.51958633     0.07100
C3571       C  0.38134672  0.61183421  0.49113040    -0.07500
C3572       C  0.39201887  0.60316307  0.47204704     0.04500
C3573       C  0.39553280  0.58776512  0.48200141    -0.14700
C3574       C  0.38739174  0.58112825  0.50962887    -0.08100
C3575       C  0.36400687  0.61537691  0.54089907     0.05400
C3576       C  0.37110571  0.62442591  0.56615939    -0.09200
C3577       C  0.36245810  0.63512317  0.58511460     0.00400
C3578       C  0.34631098  0.63669190  0.57900053     0.00300
C3579       C  0.33917366  0.62716444  0.55436747    -0.12700
C3580       C  0.34792190  0.61661320  0.53518357     0.00800
C3581       C  0.37071650  0.64508628  0.60862594     0.40100
C3582       C  0.34054651  0.60780242  0.00851324     0.36700
C3583       C  0.36870486  0.58259983  0.55682361     0.36400
C3584       C  0.39934814  0.61056835  0.44309185     0.37200
N3585       N  0.37735887  0.65315923  0.62723690    -0.43600
N3586       N  0.33466745  0.60067124  0.98703472    -0.44100
N3587       N  0.40512344  0.61655233  0.41982314    -0.41400
N3588       N  0.36230541  0.57685018  0.57958026    -0.42900
H3589       H  0.38972123  0.56928269  0.51729130     0.13300
H3590       H  0.37903327  0.62379342  0.48430104     0.09800
H3591       H  0.38357249  0.62348817  0.57021233     0.10900
H3592       H  0.32680808  0.62828727  0.54933734     0.16700
C3593       C  0.21466190  0.26853343  0.72748454    -0.01500
C3594       C  0.20050530  0.26385014  0.71217024     0.07100
C3595       C  0.18691752  0.27219427  0.71967982    -0.07500
C3596       C  0.18701811  0.28444332  0.74317197     0.04500
C3597       C  0.20105546  0.28878956  0.75948087    -0.14700
C3598       C  0.21484370  0.28104948  0.75046738    -0.08100
C3599       C  0.19914496  0.24948231  0.69103064     0.05400
C3600       C  0.18871572  0.23782992  0.70161473    -0.09200
C3601       C  0.18698205  0.22401009  0.68305302     0.00400
C3602       C  0.19608967  0.22146837  0.65352523     0.00300
C3603       C  0.20632101  0.23324325  0.64263722    -0.12700
C3604       C  0.20768831  0.24724529  0.66060493     0.00800
C3605       C  0.17602634  0.21258469  0.69536199     0.40100
C3606       C  0.21745304  0.25930542  0.64649037     0.36700
C3607       C  0.22892792  0.26002924  0.72211154     0.36400
C3608       C  0.17242801  0.29203816  0.75067885     0.37200
N3609       N  0.16717328  0.20348601  0.70521790    -0.43600
N3610       N  0.22529121  0.26890972  0.63496173    -0.44100
N3611       N  0.16074147  0.29808135  0.75692455    -0.41400
N3612       N  0.24040267  0.25328039  0.71779396    -0.42900
H3613       H  0.22568087  0.28411948  0.76310796     0.13300
H3614       H  0.17597900  0.26873743  0.70788917     0.09800
H3615       H  0.18192848  0.23951415  0.72478286     0.10900
H3616       H  0.21312454  0.23163008  0.61947919     0.16700
C3617       C  0.18966637  0.26202670  0.95462957    -0.01500
C3618       C  0.19706141  0.24837146  0.94318961     0.07100
C3619       C  0.20414167  0.24816164  0.91096413    -0.07500
C3620       C  0.20424217  0.26144372  0.89035521     0.04500
C3621       C  0.19728849  0.27535107  0.90227687    -0.14700
C3622       C  0.18979475  0.27535070  0.93414156    -0.08100
C3623       C  0.19757867  0.23424822  0.96474698     0.05400
C3624       C  0.18400976  0.22542618  0.96880855    -0.09200
C3625       C  0.18305254  0.21313350  0.49147003     0.00400
C3626       C  0.19656025  0.20899074  0.50995959     0.00300
C3627       C  0.21085590  0.21721244  0.00473678    -0.12700
C3628       C  0.21113738  0.23003473  0.98268779     0.00800
C3629       C  0.16845607  0.20507281  0.49607972     0.40100
C3630       C  0.22506004  0.23941149  0.98073305     0.36700
C3631       C  0.18232280  0.26273234  0.98778804     0.36400
C3632       C  0.21113639  0.26029564  0.85673647     0.37200
N3633       N  0.15672176  0.19869964  0.49997583    -0.43600
N3634       N  0.23610775  0.24708860  0.97932835    -0.44100
N3635       N  0.21657961  0.25932079  0.82974702    -0.41400
N3636       N  0.17596754  0.26350417  0.51356459    -0.42900
H3637       H  0.18440908  0.28594396  0.94356117     0.13300
H3638       H  0.20960432  0.23755141  0.90190594     0.09800
H3639       H  0.17304629  0.22888881  0.45481107     0.10900
H3640       H  0.22118596  0.21442300  0.01944053     0.16700
C3641       C  0.03040175  0.42748231  0.60699705    -0.01500
C3642       C  0.01686590  0.43538751  0.61783229     0.07100
C3643       C  0.01711448  0.44350832  0.64884469    -0.07500
C3644       C  0.03066230  0.44425863  0.66857042     0.04500
C3645       C  0.04437638  0.43666614  0.65726085    -0.14700
C3646       C  0.04393403  0.42815074  0.62674626    -0.08100
C3647       C  0.00247177  0.43544247  0.59685911     0.05400
C3648       C  0.99540754  0.42125382  0.58850080    -0.09200
C3649       C  0.98296945  0.42063760  0.56554853     0.00400
C3650       C  0.97735332  0.43447477  0.55061064     0.00300
C3651       C  0.98361552  0.44875389  0.56107093    -0.12700
C3652       C  0.99609358  0.44935572  0.58393760     0.00800
C3653       C  0.97623380  0.40566777  0.55783418     0.40100
C3654       C  0.00260503  0.46434630  0.59228977     0.36700
C3655       C  0.03085923  0.41892555  0.57527433     0.36400
C3656       C  0.02987769  0.45252466  0.70065792     0.37200
N3657       N  0.97064495  0.39359059  0.05127186    -0.43600
N3658       N  0.00770596  0.47640117  0.59906095    -0.44100
N3659       N  0.02905553  0.45914579  0.72634020    -0.41400
N3660       N  0.03124666  0.41198726  0.54996054    -0.42900
H3661       H  0.05433056  0.42218165  0.61788154     0.13300
H3662       H  0.00662416  0.44930233  0.65768594     0.09800
H3663       H  0.99991497  0.41056206  0.59932613     0.10900
H3664       H  0.97930519  0.45946870  0.54998894     0.16700
C3665       C  0.00777783  0.41640408  0.87522766    -0.01500
C3666       C  0.01441292  0.43002628  0.86141176     0.07100
C3667       C  0.00687766  0.44427589  0.86623679    -0.07500
C3668       C  0.99313366  0.44521619  0.88524521     0.04500
C3669       C  0.98665623  0.43166053  0.89995455    -0.14700
C3670       C  0.99398478  0.41730812  0.89434166    -0.08100
C3671       C  0.02862609  0.42971917  0.83986291     0.05400
C3672       C  0.02804500  0.42183260  0.80863949    -0.09200
C3673       C  0.04043340  0.42264533  0.78558950     0.00400
C3674       C  0.05382978  0.43153066  0.79368369     0.00300
C3675       C  0.05450857  0.43927975  0.82519622    -0.12700
C3676       C  0.04207309  0.43832827  0.84838975     0.00800
C3677       C  0.03850763  0.41511336  0.75284204     0.40100
C3678       C  0.04333032  0.44619877  0.88084830     0.36700
C3679       C  0.01509484  0.40145554  0.87078647     0.36400
C3680       C  0.98571372  0.46020386  0.88820361     0.37200
N3681       N  0.03694189  0.40913036  0.72658226    -0.43600
N3682       N  0.04425290  0.45243870  0.90696102    -0.44100
N3683       N  0.97975919  0.47220687  0.89045972    -0.41400
N3684       N  0.02094915  0.38947377  0.86715483    -0.42900
H3685       H  0.98916411  0.40687708  0.90552277     0.13300
H3686       H  0.01166055  0.45465361  0.85475068     0.09800
H3687       H  0.01761712  0.41550206  0.80170855     0.10900
H3688       H  0.06468438  0.44610515  0.83161323     0.16700
C3689       C  0.10943150  0.52698704  0.59212371    -0.01500
C3690       C  0.10675445  0.51103599  0.58629340     0.07100
C3691       C  0.10141233  0.50628779  0.55401207    -0.07500
C3692       C  0.09774066  0.51713758  0.52861061     0.04500
C3693       C  0.09902548  0.53320678  0.53554765    -0.14700
C3694       C  0.10553389  0.53788232  0.56693946    -0.08100
C3695       C  0.10727730  0.49937196  0.61448959     0.05400
C3696       C  0.09794279  0.50187197  0.64350376    -0.09200
C3697       C  0.09563943  0.49016005  0.66781546     0.00400
C3698       C  0.10261451  0.47546250  0.66314892     0.00300
C3699       C  0.11266687  0.47324425  0.63519324    -0.12700
C3700       C  0.11511896  0.48505191  0.61109267     0.00800
C3701       C  0.08485385  0.49312717  0.69539025     0.40100
C3702       C  0.12536478  0.48202648  0.58258301     0.36700
C3703       C  0.11571237  0.53247943  0.62414817     0.36400
C3704       C  0.09227576  0.51140369  0.99670428     0.37200
N3705       N  0.07615778  0.49548343  0.71739605    -0.43600
N3706       N  0.13352903  0.47957478  0.55966586    -0.44100
N3707       N  0.08772537  0.50673961  0.97084140    -0.41400
N3708       N  0.12070144  0.53683066  0.64988587    -0.42900
H3709       H  0.10695322  0.55011378  0.57251526     0.13300
H3710       H  0.09925806  0.49410834  0.54922138     0.09800
H3711       H  0.09164398  0.51267287  0.64612655     0.10900
H3712       H  0.11816391  0.46206182  0.63145488     0.16700
C3713       C  0.14196922  0.40102545  0.77670791    -0.01500
C3714       C  0.14089701  0.38513125  0.76852597     0.07100
C3715       C  0.12920658  0.38014646  0.74607971    -0.07500
C3716       C  0.11847520  0.39069155  0.73220504     0.04500
C3717       C  0.11929888  0.40665037  0.74097321    -0.14700
C3718       C  0.13125573  0.41158560  0.76300108    -0.08100
C3719       C  0.15166579  0.37350377  0.78375337     0.05400
C3720       C  0.14655237  0.36441067  0.81130197    -0.09200
C3721       C  0.15635921  0.35332805  0.82643182     0.00400
C3722       C  0.17167089  0.35110346  0.81377853     0.00300
C3723       C  0.17674089  0.36041772  0.78633061    -0.12700
C3724       C  0.16692124  0.37148531  0.77135037    -0.05600
C3725       C  0.15034155  0.34454741  0.85495334     0.40100
C3726       C  0.17263419  0.38045859  0.74281357     0.36700
C3727       C  0.15369912  0.40667050  0.79997808     0.36400
C3728       C  0.10642216  0.38462526  0.71024708     0.37200
N3729       N  0.14547861  0.33755173  0.87785187    -0.43600
N3730       N  0.17719265  0.38764675  0.71991029    -0.44100
N3731       N  0.09675364  0.37972351  0.69271691    -0.41400
N3732       N  0.16309170  0.41117020  0.81869424    -0.42900
H3733       H  0.13211029  0.42374013  0.77007946     0.13300
H3734       H  0.12835306  0.36790492  0.73971795     0.09800
H3735       H  0.13485451  0.36602333  0.82107121     0.10900
H3736       H  0.18836474  0.35891476  0.77607330     0.16700
C3737       C  0.51543023  0.43574526  0.78101251    -0.01500
C3738       C  0.51723975  0.42663521  0.81061717     0.07100
C3739       C  0.50530869  0.41631275  0.82014221    -0.07500
C3740       C  0.49152816  0.41531694  0.80122289     0.04500
C3741       C  0.48927795  0.42536206  0.77318345    -0.14700
C3742       C  0.50149659  0.43516790  0.76292136    -0.08100
C3743       C  0.53098232  0.42849906  0.83312833     0.05400
C3744       C  0.53439496  0.44331413  0.84608484    -0.09200
C3745       C  0.54651377  0.44555340  0.86929692     0.00400
C3746       C  0.55526843  0.43268088  0.88062167     0.00300
C3747       C  0.55213246  0.41792076  0.86690566    -0.12700
C3748       C  0.54018426  0.41576244  0.84315159     0.00800
C3749       C  0.54898033  0.46101686  0.88254958     0.40100
C3750       C  0.53751897  0.40040017  0.82953554     0.36700
C3751       C  0.52768292  0.44578121  0.76862216     0.36400
C3752       C  0.47993314  0.40410030  0.81150265     0.37200
N3753       N  0.55096250  0.47340392  0.89317542    -0.43600
N3754       N  0.53525816  0.38812516  0.81855941    -0.44100
N3755       N  0.47076686  0.39494238  0.81955753    -0.41400
N3756       N  0.53746545  0.45384569  0.75864407    -0.42900
H3757       H  0.50014527  0.44256556  0.74062573     0.13300
H3758       H  0.50663122  0.40922579  0.84288563     0.09800
H3759       H  0.52722696  0.45312954  0.83881041     0.10900
H3760       H  0.55882819  0.40795622  0.87531702     0.16700
C3761       C  0.52589734  0.41846753  0.56606948    -0.01500
C3762       C  0.51304885  0.42803219  0.55855593     0.07100
C3763       C  0.51374828  0.43809671  0.53058880    -0.07500
C3764       C  0.52724665  0.43922557  0.51080531     0.04500
C3765       C  0.54054963  0.43035183  0.51954395    -0.14700
C3766       C  0.53951035  0.41968618  0.54656162    -0.08100
C3767       C  0.49950268  0.42900002  0.58175951     0.05400
C3768       C  0.49796802  0.44230046  0.60207972    -0.09200
C3769       C  0.48628896  0.44332159  0.62683306     0.00400
C3770       C  0.47582593  0.43082659  0.63139067     0.00300
C3771       C  0.47706911  0.41770009  0.61019975    -0.12700
C3772       C  0.48871426  0.41678410  0.58520275     0.00800
C3773       C  0.48615870  0.45676533  0.64890729     0.40100
C3774       C  0.48942893  0.40327756  0.56339975     0.36700
C3775       C  0.52559155  0.40785219  0.59459760     0.36400
C3776       C  0.52691515  0.44943298  0.98156939     0.37200
N3777       N  0.48615614  0.46751906  0.66664810    -0.43600
N3778       N  0.49001168  0.39251232  0.54574064    -0.44100
N3779       N  0.52654948  0.45762173  0.95814843    -0.41400
N3780       N  0.52525388  0.39930842  0.61739431    -0.42900
H3781       H  0.54953369  0.41265020  0.55325097     0.13300
H3782       H  0.50376702  0.44532293  0.52462461     0.09800
H3783       H  0.50633697  0.45168837  0.59944079     0.10900
H3784       H  0.46908026  0.40806750  0.61352137     0.16700
C3785       C  0.42477120  0.49755292  0.88099698    -0.01500
C3786       C  0.41637395  0.49866609  0.85018058     0.07100
C3787       C  0.40689012  0.51161951  0.84437735    -0.07500
C3788       C  0.40686400  0.52409128  0.86732452     0.04500
C3789       C  0.41673515  0.52373868  0.89620247    -0.14700
C3790       C  0.42486719  0.51004486  0.90373760    -0.08100
C3791       C  0.41877674  0.48722464  0.82246927     0.05400
C3792       C  0.41369834  0.47193741  0.82711364    -0.09200
C3793       C  0.41795503  0.46027944  0.80407409     0.00400
C3794       C  0.42745983  0.46390031  0.77560239     0.00300
C3795       C  0.43168781  0.47944590  0.76983762    -0.12700
C3796       C  0.42751823  0.49108333  0.79311284     0.00800
C3797       C  0.41254583  0.44468479  0.81055714     0.40100
C3798       C  0.43318026  0.50670158  0.78764949     0.36700
C3799       C  0.43434464  0.48423385  0.88863399     0.36400
C3800       C  0.39688078  0.53716849  0.86021579     0.37200
N3801       N  0.40822069  0.43217579  0.81573309    -0.43600
N3802       N  0.43767363  0.51923963  0.78354527    -0.44100
N3803       N  0.38878977  0.54759433  0.85465212    -0.41400
N3804       N  0.44199078  0.47356044  0.89488305    -0.42900
H3805       H  0.43225845  0.50948643  0.92610836     0.13300
H3806       H  0.40004876  0.51225655  0.82117391     0.09800
H3807       H  0.40683561  0.46900939  0.84960581     0.10900
H3808       H  0.43900632  0.48239996  0.74810387     0.16700
C3809       C  0.34177549  0.22257925  0.94811123    -0.01500
C3810       C  0.32845782  0.23017284  0.96074660     0.07100
C3811       C  0.31367034  0.22445796  0.95200879    -0.07500
C3812       C  0.31199491  0.21167283  0.93009057     0.04500
C3813       C  0.32534180  0.20450539  0.91596956    -0.14700
C3814       C  0.34014047  0.20994385  0.92591508    -0.08100
C3815       C  0.32968454  0.24430242  0.98243005     0.05400
C3816       C  0.33693336  0.25766739  0.96923906    -0.09200
C3817       C  0.33694616  0.27181953  0.48865723     0.00400
C3818       C  0.33023858  0.27235201  0.52157143     0.00300
C3819       C  0.32288493  0.25900412  0.53452080    -0.12700
C3820       C  0.32211540  0.24530614  0.51549032     0.00800
C3821       C  0.34476273  0.28494897  0.97301474     0.40100
C3822       C  0.31464875  0.23191422  0.53051809     0.36700
C3823       C  0.35724187  0.22748813  0.95776559     0.36400
C3824       C  0.29643722  0.20651107  0.92211549     0.37200
N3825       N  0.35027321  0.29581968  0.96049563    -0.43600
N3826       N  0.30860610  0.22120813  0.54252616    -0.44100
N3827       N  0.28391296  0.20241582  0.91601284    -0.41400
N3828       N  0.36960372  0.23145350  0.96562466    -0.42900
H3829       H  0.35053733  0.20452434  0.91582464     0.13300
H3830       H  0.30339903  0.23020590  0.96182509     0.09800
H3831       H  0.34169497  0.25744219  0.94343108     0.10900
H3832       H  0.31777970  0.25920643  0.55999082     0.16700
C3833       C  0.32928201  0.26913415  0.72260172    -0.01500
C3834       C  0.33567858  0.25455465  0.71411003     0.07100
C3835       C  0.34195183  0.25218447  0.68154307    -0.07500
C3836       C  0.34162521  0.26394699  0.65707764     0.04500
C3837       C  0.33499687  0.27853807  0.66521412    -0.14700
C3838       C  0.32892718  0.28100195  0.69809853    -0.08100
C3839       C  0.33412384  0.24092157  0.73677504     0.05400
C3840       C  0.31920094  0.23483262  0.74199674    -0.09200
C3841       C  0.31706730  0.22093544  0.75972045     0.00400
C3842       C  0.33007542  0.21305913  0.77346328     0.00300
C3843       C  0.34505104  0.21913413  0.76800868    -0.12700
C3844       C  0.34716970  0.23289719  0.74954061     0.00800
C3845       C  0.30149168  0.21463647  0.76147708     0.40100
C3846       C  0.36279578  0.23852594  0.74388826     0.36700
C3847       C  0.32302713  0.27212645  0.75622105     0.36400
C3848       C  0.34714695  0.26020725  0.62316125     0.37200
N3849       N  0.28902250  0.20955647  0.76250627    -0.43600
N3850       N  0.37534352  0.24295533  0.73925088    -0.44100
N3851       N  0.35153037  0.25706281  0.59605473    -0.41400
N3852       N  0.31806724  0.27453870  0.78321253    -0.42900
H3853       H  0.32386356  0.29210922  0.70455260     0.13300
H3854       H  0.34648092  0.24087651  0.67476380     0.09800
H3855       H  0.30922974  0.24067765  0.73101286     0.10900
H3856       H  0.35511196  0.21317631  0.77830024     0.16700
C3857       C  0.26686197  0.32687008  0.51852727    -0.01500
C3858       C  0.26999079  0.33599652  0.98956591     0.07100
C3859       C  0.28430744  0.34374693  0.98682142    -0.07500
C3860       C  0.29586622  0.34152577  0.51066057     0.04500
C3861       C  0.29365885  0.33073378  0.53747151    -0.14700
C3862       C  0.27885881  0.32408818  0.54200093    -0.08100
C3863       C  0.25859598  0.33692361  0.96089017     0.05400
C3864       C  0.24345066  0.34230315  0.96712991    -0.09200
C3865       C  0.23180788  0.34096109  0.94219372     0.00400
C3866       C  0.23523085  0.33402642  0.91022513     0.00300
C3867       C  0.25071793  0.32994325  0.90303345    -0.12700
C3868       C  0.26234895  0.33132350  0.92793582     0.00800
C3869       C  0.21646334  0.34669435  0.95033041     0.40100
C3870       C  0.27783804  0.32600844  0.91963134     0.36700
C3871       C  0.25220022  0.31892369  0.52322697     0.36400
C3872       C  0.31089082  0.34905540  0.00556486     0.37200
N3873       N  0.20420808  0.35139275  0.95692390    -0.43600
N3874       N  0.29027907  0.32184456  0.91296784    -0.44100
N3875       N  0.32258234  0.35555772  0.00210396    -0.41400
N3876       N  0.24041056  0.31264142  0.52705448    -0.42900
H3877       H  0.27691935  0.31590900  0.56265835     0.13300
H3878       H  0.28630005  0.35158329  0.96552694     0.09800
H3879       H  0.24059832  0.34709227  0.99199114     0.10900
H3880       H  0.25361248  0.32478872  0.87856558     0.16700
C3881       C  0.36718008  0.36685513  0.65093774    -0.01500
C3882       C  0.38322307  0.36549589  0.64439249     0.07100
C3883       C  0.38863996  0.35334969  0.62376957    -0.07500
C3884       C  0.37827018  0.34248491  0.60977577     0.04500
C3885       C  0.36214119  0.34352837  0.61708818    -0.14700
C3886       C  0.35682377  0.35585181  0.63763318    -0.08100
C3887       C  0.39444298  0.37683017  0.65867131     0.05400
C3888       C  0.40299990  0.37288267  0.68784975    -0.09200
C3889       C  0.41327938  0.38355508  0.70282219     0.00400
C3890       C  0.41512192  0.39851614  0.68827975     0.00300
C3891       C  0.40635241  0.40238597  0.65920399    -0.12700
C3892       C  0.39615993  0.39170398  0.64433211     0.00800
C3893       C  0.42163322  0.37877324  0.73302423     0.40100
C3894       C  0.38774572  0.39616646  0.61400477     0.36700
C3895       C  0.36117735  0.37949177  0.67132157     0.36400
C3896       C  0.38460786  0.33031118  0.58856849     0.37200
N3897       N  0.42828230  0.37487149  0.75723535    -0.43600
N3898       N  0.38102781  0.39974858  0.58966251    -0.44100
N3899       N  0.38971278  0.32060838  0.57144261    -0.41400
N3900       N  0.35655405  0.38975006  0.68750422    -0.42900
H3901       H  0.34451790  0.35694327  0.64330090     0.13300
H3902       H  0.40100076  0.35241318  0.61849054     0.09800
H3903       H  0.40154019  0.36145927  0.69907181     0.10900
H3904       H  0.40764572  0.41373289  0.64751510     0.16700
loop_ 
_geom_bond_atom_site_label_1 
_geom_bond_atom_site_label_2 
_geom_bond_distance 
_geom_bond_site_symmetry_2 
_ccdc_geom_bond_type 
In1           O3   2.207       .  S
In1           O4   2.254       .  S
In1          O12   2.236       .  S
In1           O6   2.244       .  S
In1           O8   2.260       .  S
In1           O9   2.257       .  S
In1          O10   2.207       .  S
In1          O13   2.221       .  S
C2            O8   1.268       .  A
C2           O10   1.260       .  A
C2         C1866   1.479       .  S
O3           C11   1.260       .  A
O4           C11   1.268       .  A
C5           O12   1.263       .  A
C5            O6   1.265       .  A
C5         C1933   1.486       .  S
C7            O9   1.266       .  A
C7           O13   1.261       .  A
C7         C1909   1.486       .  S
C11        C1885   1.477       .  S
In14         O16   2.224       .  S
In14         O17   2.239       .  S
In14         O25   2.224       .  S
In14         O19   2.235       .  S
In14         O21   2.254       .  S
In14         O22   2.255       .  S
In14         O23   2.201       .  S
In14         O26   2.225       .  S
C15          O21   1.264       .  A
C15          O23   1.258       .  A
C15        C1789   1.476       .  S
O16          C24   1.260       .  A
O17          C24   1.265       .  A
C18          O25   1.264       .  A
C18          O19   1.263       .  A
C18        C1938   1.485       .  S
C20          O22   1.264       .  A
C20          O26   1.260       .  A
C20        C1842   1.481       .  S
C24        C1818   1.474       .  S
In27         O29   2.200       .  S
In27         O30   2.259       .  S
In27         O38   2.241       .  S
In27         O32   2.247       .  S
In27         O34   2.250       .  S
In27         O35   2.247       .  S
In27         O36   2.224       .  S
In27         O39   2.230       .  S
C28          O34   1.269       .  A
C28          O36   1.260       .  A
C28        C1693   1.482       .  S
O29          C37   1.260       .  A
O30          C37   1.269       .  A
C31          O38   1.265       .  A
C31          O32   1.265       .  A
C31        C1765   1.492       .  S
C33          O35   1.266       .  A
C33          O39   1.262       .  A
C33        C1746   1.483       .  S
C37        C1722   1.479       .  S
In40         O42   2.213       .  S
In40         O43   2.260       .  S
In40         O51   2.245       .  S
In40         O45   2.255       .  S
In40         O47   2.261       .  S
In40         O48   2.257       .  S
In40         O49   2.219       .  S
In40         O52   2.238       .  S
C41          O47   1.268       .  A
C41          O49   1.259       .  A
C41        C1669   1.481       .  S
O42          C50   1.261       .  A
O43          C50   1.269       .  A
C44          O51   1.264       .  A
C44          O45   1.265       .  A
C44        C1770   1.496       .  S
C46          O48   1.266       .  A
C46          O52   1.261       .  A
C46        C1914   1.489       .  S
C50        C1645   1.485       .  S
In53         O58   2.234       .  S
In53         O60   2.250       .  S
In53         O61   2.232       .  S
In53         O62   2.208       .  S
In53         O65   2.222       .  S
In53       O2007   2.210       .  S
In53       O2008   2.239       .  S
In53       O2016   2.212       .  S
C54          O60   1.267       .  A
C54          O62   1.259       .  A
C54        C1597   1.468       .  S
O55       In2005   2.209       .  S
O55          C63   1.262       .  A
O56       In2005   2.238       .  S
O56          C63   1.266       .  A
C57          O64   1.261       .  A
C57        O2010   1.264       .  A
C57        C1621   1.479       .  S
O58        C2009   1.264       .  A
C59          O61   1.264       .  A
C59          O65   1.261       .  A
C59        C1837   1.477       .  S
C63        C1573   1.470   1_556  S
O64       In2005   2.212       .  S
In66         O68   2.226       .  S
In66         O69   2.241       .  S
In66         O77   2.223       .  S
In66         O71   2.226       .  S
In66         O73   2.239       .  S
In66         O74   2.245       .  S
In66         O75   2.207       .  S
In66         O78   2.208       .  S
C67          O73   1.267       .  A
C67          O75   1.260       .  A
C67        C1525   1.465       .  S
O68          C76   1.259       .  A
O69          C76   1.266       .  A
C70          O77   1.263       .  A
C70          O71   1.264       .  A
C70        C1626   1.477       .  S
C72          O74   1.268       .  A
C72          O78   1.261       .  A
C72        C1549   1.485       .  S
C76        C1501   1.479       .  S
In79         O81   2.210       .  S
In79         O82   2.261       .  S
In79         O90   2.235       .  S
In79         O84   2.219       .  S
In79         O86   2.244       .  S
In79         O87   2.246       .  S
In79         O88   2.213       .  S
In79       O2043   2.231       .  S
C80        O2038   1.265       .  A
C80        O2040   1.260       .  A
C80        C1434   1.468       .  S
O81          C89   1.260       .  A
O82          C89   1.268       .  A
C83          O90   1.264       .  A
C83          O84   1.264       .  A
C83        C1477   1.479       .  S
C85          O87   1.267       .  A
C85        O2043   1.262       .  A
C85        C3693   1.490       .  S
O86        C2032   1.265       .  A
O88        C2032   1.259       .  A
C89        C1458   1.487       .  S
O91       In2031   2.230   1_554  S
O91        C2037   1.262       .  A
In92         O94   2.205       .  S
In92         O95   2.251       .  S
In92        O103   2.217       .  S
In92         O97   2.232       .  S
In92         O99   2.250       .  S
In92        O100   2.243       .  S
In92        O101   2.204       .  S
In92        O104   2.215       .  S
C93          O99   1.271       .  A
C93         O101   1.262       .  A
C93        C1410   1.482       .  S
O94         C102   1.262       .  A
O95         C102   1.271       .  A
C96         O103   1.265       .  A
C96          O97   1.267       .  A
C96        C1482   1.485       .  S
C98         O100   1.270       .  A
C98         O104   1.263       .  A
C98        C1554   1.483       .  S
C102       C1381   1.480       .  S
In105       O107   2.226       .  S
In105       O108   2.226       .  S
In105       O116   2.218       .  S
In105       O110   2.241       .  S
In105       O112   2.249       .  S
In105       O113   2.228       .  S
In105       O114   2.198       .  S
In105       O117   2.216       .  S
C106        O112   1.270       .  A
C106        O114   1.261       .  A
C106       C1578   1.474       .  S
O107        C115   1.264       .  A
O108        C115   1.266       .  A
C109        O116   1.262       .  A
C109        O110   1.267       .  A
C109       C1357   1.486       .  S
C111        O113   1.266       .  A
C111        O117   1.262       .  A
C111       C1602   1.480       .  S
C115       C1333   1.485       .  S
In118       O120   2.230       .  S
In118       O121   2.243       .  S
In118       O129   2.238       .  S
In118       O123   2.234       .  S
In118       O125   2.253       .  S
In118       O126   2.257       .  S
In118       O127   2.203       .  S
In118       O130   2.226       .  S
C119        O125   1.267       .  A
C119        O127   1.260       .  A
C119       C1290   1.470       .  S
O120        C128   1.262       .  A
O121        C128   1.266       .  A
C122        O129   1.261       .  A
C122        O123   1.264       .  A
C122       C1362   1.482       .  S
C124        O126   1.266       .  A
C124        O130   1.259       .  A
C124       C1266   1.486       .  S
C128       C1309   1.480       .  S
In131       O133   2.208       .  S
In131       O134   2.268       .  S
In131       O142   2.236       .  S
In131       O136   2.212       .  S
In131       O138   2.236       .  S
In131       O139   2.245       .  S
In131       O140   2.212       .  S
In131       O143   2.219       .  S
C132        O138   1.264       .  A
C132        O140   1.259       .  A
C132       C1189   1.468       .  S
O133        C141   1.258       .  A
O134        C141   1.266       .  A
C135        O142   1.264       .  A
C135        O136   1.262       .  A
C135       C1237   1.479       .  S
C137        O139   1.267       .  A
C137        O143   1.260       .  A
C137       C1165   1.474       .  S
C141       C1218   1.477       .  S
In144       O147   2.233       .  S
In144       O155   2.216       .  S
In144       O149   2.238       .  S
In144       O152   2.227       .  S
In144       O153   2.210       .  S
In144       O156   2.217       .  S
In144      O2098   2.237       .  S
In144      O2103   2.253       .  S
C145        O151   1.267       .  A
C145       O2105   1.258   1_554  A
C145       C1813   1.480       .  S
O146      In2096   2.237   1_554  S
O146       C2106   1.262   1_554  A
O147        C154   1.263       .  A
C148        O155   1.261       .  A
C148        O149   1.264       .  A
C148       C1242   1.474       .  S
C150        O152   1.265       .  A
C150        O156   1.262       .  A
C150       C1794   1.475       .  S
O151      In2096   2.254   1_554  S
O153       C2097   1.258       .  A
C154       O2098   1.262       .  A
C154       C3290   1.479       .  S
In157       O159   2.216       .  S
In157       O160   2.252       .  S
In157       O168   2.224       .  S
In157       O162   2.250       .  S
In157       O164   2.249       .  S
In157       O165   2.245       .  S
In157       O166   2.218       .  S
In157       O169   2.213       .  S
C158        O164   1.267       .  A
C158        O166   1.261       .  A
C158       C1122   1.485       .  S
O159        C167   1.261       .  A
O160        C167   1.266       .  A
C161        O168   1.263       .  A
C161        O162   1.266       .  A
C161       C1141   1.486       .  S
C163        O165   1.267       .  A
C163        O169   1.261       .  A
C163       C1093   1.473       .  S
C167       C1314   1.477       .  S
In170       O172   2.225       .  S
In170       O173   2.246       .  S
In170       O181   2.232       .  S
In170       O175   2.236       .  S
In170       O177   2.256       .  S
In170       O178   2.248       .  S
In170       O179   2.207       .  S
In170       O182   2.205       .  S
C171        O177   1.268       .  A
C171        O179   1.260       .  A
C171       C1453   1.476       .  S
O172        C180   1.262       .  A
O173        C180   1.267       .  A
C174        O181   1.263       .  A
C174        O175   1.266       .  A
C174       C1146   1.482       .  S
C176        O178   1.269       .  A
C176        O182   1.260       .  A
C176       C1429   1.483       .  S
C180       C1069   1.481       .  S
In183       O185   2.219       .  S
In183       O186   2.237       .  S
In183       O194   2.225       .  S
In183       O188   2.237       .  S
In183       O190   2.260       .  S
In183       O191   2.233       .  S
In183       O192   2.201       .  S
In183       O195   2.207       .  S
C184        O190   1.270       .  A
C184        O192   1.260       .  A
C184       C1021   1.474       .  S
O185        C193   1.264       .  A
O186        C193   1.267       .  A
C187        O194   1.263       .  A
C187        O188   1.267       .  A
C187       C1045   1.485       .  S
C189        O191   1.268       .  A
C189        O195   1.260       .  A
C189        C997   1.480       .  S
C193       C1213   1.482       .  S
In196       O198   2.232       .  S
In196       O199   2.240       .  S
In196       O201   2.248       .  S
In196       O203   2.262       .  S
In196       O205   2.215       .  S
In196      O2159   2.227       .  S
In196      O2156   2.243       .  S
In196      O2160   2.219       .  S
C197        O203   1.266       .  A
C197        O205   1.258       .  A
C197       C1717   1.480       .  S
O198        C206   1.263       .  A
O199        C206   1.263       .  A
C200        O207   1.261       .  A
C200       O2153   1.265       .  A
C200       C1050   1.485       .  S
O201       C2152   1.265       .  A
C202        O204   1.264       .  A
C202        O208   1.260       .  A
C202       C1698   1.477       .  S
O204      In2148   2.243   1_554  S
C206       C1074   1.484       .  S
O207      In2148   2.225       .  S
O208      In2148   2.219   1_554  S
In209       O211   2.220       .  S
In209       O212   2.254       .  S
In209       O220   2.233       .  S
In209       O214   2.234       .  S
In209       O216   2.246       .  S
In209       O217   2.260       .  S
In209       O218   2.204       .  S
In209       O221   2.213       .  S
C210        O216   1.269       .  A
C210        O218   1.261       .  A
C210       C1890   1.477       .  S
O211        C219   1.261       .  A
O212        C219   1.269       .  A
C213        O220   1.264       .  A
C213        O214   1.266       .  A
C213        C973   1.489       .  S
C215        O217   1.269       .  A
C215        O221   1.261       .  A
C215       C1861   1.489       .  S
C219        C949   1.485       .  S
In222       O225   2.258       .  S
In222       O233   2.242       .  S
In222       O227   2.247       .  S
In222       O230   2.245       .  S
In222       O231   2.211       .  S
In222       O234   2.230       .  S
In222      O2176   2.241       .  S
In222      O2181   2.270       .  S
C223        O229   1.266       .  A
C223       O2183   1.257       .  A
C223        C906   1.477       .  S
O224      In2174   2.243   1_554  S
O224       C2184   1.261       .  A
O225        C232   1.263       .  A
C226        O233   1.263       .  A
C226        O227   1.263       .  A
C226        C978   1.492       .  S
C228        O230   1.266       .  A
C228        O234   1.262       .  A
C228        C877   1.486       .  S
O229      In2174   2.273   1_554  S
O231       C2175   1.257       .  A
C232       O2176   1.261       .  A
C232       C2877   1.487       .  S
In235       O237   2.211       .  S
In235       O238   2.261       .  S
In235       O246   2.241       .  S
In235       O240   2.246       .  S
In235       O242   2.261       .  S
In235       O243   2.254       .  S
In235       O244   2.221       .  S
In235       O247   2.219       .  S
C236        O242   1.267       .  A
C236        O244   1.260       .  A
C236       C1650   1.485       .  S
O237        C245   1.261       .  A
O238        C245   1.266       .  A
C239        O246   1.263       .  A
C239        O240   1.265       .  A
C239        C853   1.490       .  S
C241        O243   1.266       .  A
C241        O247   1.261       .  A
C241       C1674   1.481       .  S
C245        C954   1.479       .  S
In248       O250   2.228       .  S
In248       O251   2.235       .  S
In248       O253   2.241       .  S
In248       O255   2.275       .  S
In248       O257   2.218       .  S
In248      O2211   2.242       .  S
In248      O2208   2.233       .  S
In248      O2212   2.205       .  S
C249        O255   1.268       .  A
C249        O257   1.259       .  A
C249        C786   1.491       .  S
O250        C258   1.262       .  A
O251        C258   1.264       .  A
C252        O259   1.264       .  A
C252       O2205   1.266   1_554  A
C252        C858   1.493       .  S
O253       C2204   1.266       .  A
C254        O256   1.266       .  A
C254        O260   1.262       .  A
C254        C805   1.468       .  S
O256      In2200   2.233   1_554  S
C258        C829   1.477       .  S
O259      In2200   2.242   1_554  S
O260      In2200   2.205   1_554  S
In261       O263   2.229       .  S
In261       O264   2.257       .  S
In261       O272   2.228       .  S
In261       O266   2.236       .  S
In261       O268   2.258       .  S
In261       O269   2.251       .  S
In261       O270   2.204       .  S
In261       O273   2.207       .  S
C262        O268   1.266       .  A
C262        O270   1.260       .  A
C262        C709   1.478       .  S
O263        C271   1.260       .  A
O264        C271   1.265       .  A
C265        O272   1.263       .  A
C265        O266   1.263       .  A
C265        C757   1.484       .  S
C267        O269   1.268       .  A
C267        O273   1.260       .  A
C267        C733   1.478       .  S
C271        C930   1.489       .  S
In274       O276   2.225       .  S
In274       O277   2.246       .  S
In274       O285   2.228       .  S
In274       O279   2.234       .  S
In274       O281   2.247       .  S
In274       O282   2.252       .  S
In274       O283   2.215       .  S
In274       O286   2.215       .  S
C275        O281   1.266       .  A
C275        O283   1.262       .  A
C275       C1506   1.477       .  S
O276        C284   1.262       .  A
O277        C284   1.266       .  A
C278        O285   1.261       .  A
C278        O279   1.264       .  A
C278        C762   1.480       .  S
C280        O282   1.266       .  A
C280        O286   1.259       .  A
C280       C1530   1.477       .  S
C284        C685   1.479       .  S
In287       O289   2.226       .  S
In287       O290   2.256       .  S
In287       O298   2.235       .  S
In287       O292   2.233       .  S
In287       O294   2.251       .  S
In287       O295   2.256       .  S
In287       O296   2.204       .  S
In287       O299   2.206       .  S
C288        O294   1.266       .  A
C288        O296   1.257       .  A
C288        C613   1.469       .  S
O289        C297   1.260       .  A
O290        C297   1.266       .  A
C291        O298   1.266       .  A
C291        O292   1.264       .  A
C291        C666   1.484       .  S
C293        O295   1.269       .  A
C293        O299   1.261       .  A
C293        C642   1.482       .  S
C297        C834   1.482       .  S
In300       O302   2.224       .  S
In300       O303   2.258       .  S
In300       O311   2.246       .  S
In300       O305   2.238       .  S
In300       O307   2.260       .  S
In300       O308   2.253       .  S
In300       O309   2.215       .  S
In300       O312   2.218       .  S
C301        O307   1.267       .  A
C301        O309   1.260       .  A
C301       C1386   1.480       .  S
O302        C310   1.262       .  A
O303        C310   1.265       .  A
C304        O311   1.262       .  A
C304        O305   1.263       .  A
C304        C661   1.486       .  S
C306        O308   1.266       .  A
C306        O312   1.259       .  A
C306       C1405   1.481       .  S
C310        C690   1.476       .  S
In313       O315   2.215       .  S
In313       O316   2.228       .  S
In313       O324   2.228       .  S
In313       O318   2.245       .  S
In313       O320   2.267       .  S
In313       O321   2.236       .  S
In313       O322   2.201       .  S
In313       O325   2.242       .  S
C314        O320   1.270       .  A
C314        O322   1.258       .  A
C314       C1170   1.483       .  S
O315        C323   1.263       .  A
O316        C323   1.267       .  A
C317        O324   1.263       .  A
C317        O318   1.267       .  A
C317        C594   1.487       .  S
C319        O321   1.264       .  A
C319        O325   1.264       .  A
C319        C570   1.485       .  S
C323       C1194   1.480       .  S
In326       O328   2.218       .  S
In326       O329   2.239       .  S
In326       O337   2.229       .  S
In326       O331   2.235       .  S
In326       O333   2.251       .  S
In326       O334   2.244       .  S
In326       O335   2.222       .  S
In326       O338   2.230       .  S
C327        O333   1.266       .  A
C327        O335   1.259       .  A
C327        C882   1.478       .  S
O328        C336   1.261       .  A
O329        C336   1.267       .  A
C330        O337   1.262       .  A
C330        O331   1.264       .  A
C330        C589   1.478       .  S
C332        O334   1.265       .  A
C332        O338   1.261       .  A
C332        C541   1.483       .  S
C336        C901   1.480       .  S
In339       O341   2.211       .  S
In339       O342   2.239       .  S
In339       O350   2.234       .  S
In339       O344   2.246       .  S
In339       O346   2.259       .  S
In339       O347   2.250       .  S
In339       O348   2.212       .  S
In339       O351   2.222       .  S
C340        O346   1.271       .  A
C340        O348   1.261       .  A
C340       C1261   1.482       .  S
O341        C349   1.262       .  A
O342        C349   1.269       .  A
C343        O350   1.263       .  A
C343        O344   1.267       .  A
C343        C522   1.488       .  S
C345        O347   1.267       .  A
C345        O351   1.263       .  A
C345        C498   1.485       .  S
C349       C1285   1.481       .  S
In352       O357   2.240       .  S
In352       O359   2.236       .  S
In352       O360   2.239       .  S
In352       O361   2.225       .  S
In352       O364   2.232       .  S
In352      O2306   2.207       .  S
In352      O2307   2.251       .  S
In352      O2315   2.224       .  S
C353        O359   1.265       .  A
C353        O361   1.259       .  A
C353        C738   1.469       .  S
O354      In2304   2.205   1_554  S
O354        C362   1.258       .  A
O355      In2304   2.251   1_554  S
O355        C362   1.267       .  A
C356        O363   1.264   1_556  A
C356       O2309   1.265       .  A
C356        C517   1.488   1_556  S
O357       C2308   1.265       .  A
C358        O360   1.266       .  A
C358        O364   1.263       .  A
C358        C546   1.486       .  S
C362        C714   1.473       .  S
O363      In2304   2.226   1_554  S
In365       O367   2.200       .  S
In365       O368   2.243       .  S
In365       O376   2.227       .  S
In365       O370   2.235       .  S
In365       O372   2.254       .  S
In365       O373   2.238       .  S
In365       O374   2.217       .  S
In365      O2329   2.213       .  S
C366       O2324   1.267       .  A
C366       O2326   1.258   1_554  A
C366        C637   1.476       .  S
O367        C375   1.261       .  A
O368        C375   1.267       .  A
C369        O376   1.263       .  A
C369        O370   1.266       .  A
C369        C469   1.482       .  S
C371        O373   1.265       .  A
C371       O2329   1.262       .  A
C371       C2397   1.479       .  S
O372       C2318   1.267       .  A
O374       C2318   1.258       .  A
C375        C618   1.477       .  S
O377      In2317   2.213   1_554  S
O377       C2323   1.262       .  A
In378       O380   2.220       .  S
In378       O381   2.242       .  S
In378       O389   2.217       .  S
In378       O383   2.253       .  S
In378       O385   2.261       .  S
In378       O386   2.247       .  S
In378       O387   2.200       .  S
In378       O390   2.238       .  S
C379        O385   1.267       .  A
C379        O387   1.258       .  A
C379       C1098   1.471       .  S
O380        C388   1.261       .  A
O381        C388   1.265       .  A
C382        O389   1.259       .  A
C382        O383   1.264       .  A
C382        C474   1.484       .  S
C384        O386   1.262       .  A
C384        O390   1.260       .  A
C384        C493   1.477       .  S
C388       C1117   1.473       .  S
In391       O393   2.227       .  S
In391       O394   2.259       .  S
In391       O402   2.235       .  S
In391       O396   2.228       .  S
In391       O398   2.260       .  S
In391       O399   2.246       .  S
In391       O400   2.202       .  S
In391       O403   2.234       .  S
C392        O398   1.265       .  A
C392        O400   1.257       .  A
C392        C810   1.473       .  S
O393        C401   1.261       .  A
O394        C401   1.265       .  A
C395        O402   1.264       .  A
C395        O396   1.264       .  A
C395        C426   1.485       .  S
C397        O399   1.264       .  A
C397        O403   1.260       .  A
C397        C450   1.481       .  S
C401        C781   1.481       .  S
In404       O406   2.208       .  S
In404       O407   2.259       .  S
In404       O415   2.230       .  S
In404       O409   2.222       .  S
In404       O411   2.244       .  S
In404       O412   2.255       .  S
In404       O413   2.208       .  S
In404       O416   2.224       .  S
C405        O411   1.266       .  A
C405        O413   1.260       .  A
C405       C1002   1.469       .  S
O406        C414   1.260       .  A
O407        C414   1.270       .  A
C408        O415   1.264       .  A
C408        O409   1.265       .  A
C408        C421   1.483       .  S
C410        O412   1.267       .  A
C410        O416   1.261       .  A
C410        C565   1.490       .  S
C414       C1026   1.486       .  S
C417        C418   1.408       .  A
C417        C422   1.397       .  A
C417        C431   1.445       .  S
C418        C423   1.478       .  S
C418        C419   1.400       .  A
C419        C420   1.401       .  A
C419        H438   1.084       .  S
C420        C421   1.418       .  A
C420        C432   1.444       .  S
C421        C422   1.406       .  A
C422        H437   1.085       .  S
C423        C424   1.400       .  A
C423        C428   1.407       .  A
C424        C425   1.402       .  A
C424        H439   1.085       .  S
C425        C426   1.418       .  A
C425        C429   1.444       .  S
C426        C427   1.407       .  A
C427        C428   1.397       .  A
C427        H440   1.085       .  S
C428        C430   1.445       .  S
C429        N433   1.157       .  T
C430        N434   1.157       .  T
C431        N436   1.157       .  T
C432        N435   1.157       .  T
C441        C442   1.411       .  A
C441        C446   1.398       .  A
C441        C455   1.444       .  S
C442        C447   1.489       .  S
C442        C443   1.405       .  A
C443        C444   1.399       .  A
C443        H462   1.083   1_565  S
C444        C445   1.413       .  A
C444        C456   1.444       .  S
C445       C2323   1.479       .  S
C445        C446   1.405       .  A
C446        H461   1.084       .  S
C447        C448   1.405       .  A
C447        C452   1.412   1_565  A
C448        C449   1.399   1_565  A
C448        H463   1.082       .  S
C449        C450   1.413       .  A
C449        C453   1.444   1_545  S
C450        C451   1.406       .  A
C451        C452   1.401       .  A
C451        H464   1.083       .  S
C452        C454   1.444       .  S
C453        N457   1.157       .  T
C454        N458   1.157       .  T
C455        N460   1.157       .  T
C456        N459   1.157   1_554  T
C465        C466   1.411       .  A
C465        C470   1.400       .  A
C465        C479   1.444       .  S
C466        C471   1.484       .  S
C466        C467   1.402       .  A
C467        C468   1.398       .  A
C467        H486   1.088       .  S
C468        C469   1.415       .  A
C468        C480   1.444       .  S
C469        C470   1.406       .  A
C470        H485   1.087       .  S
C471        C472   1.400       .  A
C471        C476   1.411       .  A
C472        C473   1.396       .  A
C472        H487   1.082       .  S
C473        C474   1.417       .  A
C473        C477   1.444       .  S
C474        C475   1.407       .  A
C475        C476   1.403       .  A
C475        H488   1.082       .  S
C476        C478   1.444       .  S
C477        N481   1.157       .  T
C478        N482   1.157       .  T
C479        N484   1.157       .  T
C480        N483   1.157       .  T
C489        C490   1.413       .  A
C489        C494   1.402       .  A
C489        C503   1.443       .  S
C490        C495   1.489       .  S
C490        C491   1.404       .  A
C491        C492   1.400       .  A
C491        H510   1.084       .  S
C492        C493   1.413       .  A
C492        C504   1.445       .  S
C493        C494   1.403       .  A
C494        H509   1.083       .  S
C495        C496   1.405       .  A
C495        C500   1.412       .  A
C496        C497   1.404       .  A
C496        H511   1.083       .  S
C497        C498   1.414       .  A
C497        C501   1.443       .  S
C498        C499   1.406       .  A
C499        C500   1.399       .  A
C499        H512   1.082       .  S
C500        C502   1.445       .  S
C501        N505   1.157       .  T
C502        N506   1.157       .  T
C503        N508   1.157       .  T
C504        N507   1.158       .  T
C513        C514   1.409       .  A
C513        C518   1.399       .  A
C513        C527   1.443       .  S
C514        C519   1.489       .  S
C514        C515   1.405       .  A
C515        C516   1.403   1_554  A
C515        H534   1.084   1_554  S
C516        C517   1.417   1_556  A
C516        C528   1.444       .  S
C517        C518   1.407       .  A
C518        H533   1.084       .  S
C519        C520   1.404       .  A
C519        C524   1.410       .  A
C520        C521   1.403       .  A
C520        H535   1.086       .  S
C521        C522   1.414       .  A
C521        C525   1.443       .  S
C522        C523   1.408       .  A
C523        C524   1.401       .  A
C523        H536   1.085       .  S
C524       C2478   1.444   1_554  S
C525        N529   1.157       .  T
C526       C2476   1.444       .  S
C526        N530   1.157       .  T
C527        N532   1.157       .  T
C528        N531   1.158       .  T
C537        C538   1.410       .  A
C537        C542   1.401       .  A
C537        C551   1.444       .  S
C538        C543   1.487   1_545  S
C538        C539   1.403       .  A
C539        C540   1.400       .  A
C539        H558   1.086   1_545  S
C540        C541   1.414       .  A
C540        C552   1.444       .  S
C541        C542   1.406       .  A
C542        H557   1.085       .  S
C543        C544   1.403       .  A
C543        C548   1.410       .  A
C544        C545   1.400       .  A
C544        H559   1.082   1_565  S
C545        C546   1.415       .  A
C545        C549   1.444       .  S
C546        C547   1.408       .  A
C547        C548   1.402       .  A
C547        H560   1.082       .  S
C548        C550   1.444       .  S
C549        N553   1.157       .  T
C550        N554   1.157       .  T
C551        N556   1.157       .  T
C552        N555   1.157       .  T
C561        C562   1.409       .  A
C561        C566   1.402       .  A
C561       C2527   1.444       .  S
C562        C567   1.489       .  S
C562        C563   1.404       .  A
C563        C564   1.403       .  A
C563        H582   1.082       .  S
C564        C565   1.415       .  A
C564        C576   1.443       .  S
C565        C566   1.409       .  A
C566        H581   1.082       .  S
C567        C572   1.410       .  A
C567       C2520   1.403       .  A
C568        C569   1.401       .  A
C568       C2519   1.403   1_554  A
C568        H583   1.082       .  S
C569        C570   1.415       .  A
C569        C573   1.445       .  S
C570        C571   1.407       .  A
C571       C2524   1.404   1_554  A
C571        H584   1.082       .  S
C572       C2523   1.404       .  A
C572        C574   1.443       .  S
C573        N577   1.157       .  T
C574        N578   1.157       .  T
C575       C2513   1.444   1_554  S
C575        N580   1.157       .  T
C576        N579   1.157       .  T
C585        C586   1.410       .  A
C585        C590   1.399       .  A
C585        C599   1.444       .  S
C586        C591   1.482       .  S
C586        C587   1.402       .  A
C587        C588   1.400       .  A
C587        H606   1.085       .  S
C588        C589   1.414       .  A
C588        C600   1.444       .  S
C589        C590   1.404       .  A
C590        H605   1.086       .  S
C591        C592   1.402       .  A
C591        C596   1.408       .  A
C592        C593   1.401       .  A
C592        H607   1.085       .  S
C593        C594   1.415       .  A
C593        C597   1.443       .  S
C594        C595   1.409       .  A
C595        C596   1.401       .  A
C595        H608   1.083       .  S
C596        C598   1.445       .  S
C597        N601   1.157       .  T
C598        N602   1.157       .  T
C599        N604   1.157       .  T
C600        N603   1.157       .  T
C609        C610   1.411       .  A
C609        C614   1.398       .  A
C609        C623   1.444       .  S
C610        C615   1.474   1_455  S
C610        C611   1.398       .  A
C611        C612   1.396       .  A
C611        H630   1.086   1_455  S
C612        C613   1.414       .  A
C612        C624   1.445       .  S
C613        C614   1.401       .  A
C614        H629   1.086       .  S
C615        C616   1.403       .  A
C615        C620   1.404       .  A
C616        C617   1.402       .  A
C616        H631   1.084       .  S
C617        C618   1.415       .  A
C617        C621   1.444       .  S
C618        C619   1.406       .  A
C619        C620   1.393       .  A
C619        H632   1.085       .  S
C620        C622   1.444       .  S
C621        N625   1.158       .  T
C622        N626   1.157       .  T
C623        N628   1.157       .  T
C624        N627   1.157       .  T
C633        C634   1.410   1_655  A
C633        C638   1.399       .  A
C633        C647   1.444       .  S
C634        C639   1.479       .  S
C634        C635   1.399       .  A
C635        C636   1.398   1_455  A
C635        H654   1.087       .  S
C636        C637   1.416       .  A
C636       C2600   1.445   1_554  S
C637        C638   1.402       .  A
C638        H653   1.088       .  S
C639        C640   1.398       .  A
C639        C644   1.409       .  A
C640        C641   1.398       .  A
C640        H655   1.087       .  S
C641        C642   1.417       .  A
C641        C645   1.444       .  S
C642        C643   1.406       .  A
C643        C644   1.401       .  A
C643        H656   1.086       .  S
C644        C646   1.444       .  S
C645        N649   1.157       .  T
C646        N650   1.157       .  T
C647        N652   1.157       .  T
C648       C2588   1.445       .  S
C648        N651   1.157       .  T
C657        C658   1.407       .  A
C657        C662   1.399       .  A
C657        C671   1.444       .  S
C658        C663   1.482       .  S
C658        C659   1.401       .  A
C659        C660   1.403       .  A
C659        H678   1.085       .  S
C660        C661   1.417       .  A
C660        C672   1.444       .  S
C661        C662   1.406       .  A
C662        H677   1.085       .  S
C663        C664   1.402       .  A
C663        C668   1.407       .  A
C664        C665   1.404       .  A
C664        H679   1.084       .  S
C665        C666   1.416       .  A
C665        C669   1.444       .  S
C666        C667   1.406       .  A
C667        C668   1.399       .  A
C667        H680   1.084       .  S
C668        C670   1.443       .  S
C669        N673   1.158       .  T
C670        N674   1.157       .  T
C671        N676   1.157       .  T
C672        N675   1.157       .  T
C681        C682   1.415       .  A
C681        C686   1.399       .  A
C681        C695   1.444       .  S
C682        C687   1.497       .  S
C682        C683   1.409       .  A
C683        C684   1.402       .  A
C683        H702   1.084       .  S
C684        C685   1.410       .  A
C684        C696   1.444       .  S
C685        C686   1.404       .  A
C686        H701   1.085       .  S
C687        C692   1.416       .  A
C687       C2640   1.410       .  A
C688        C689   1.406       .  A
C688       C2639   1.410   1_554  A
C688        H703   1.087       .  S
C689        C690   1.409       .  A
C689        C693   1.443       .  S
C690        C691   1.400   1_554  A
C691       C2644   1.395       .  A
C691        H704   1.089       .  S
C692       C2643   1.395       .  A
C692        C694   1.445       .  S
C693        N697   1.157       .  T
C694        N698   1.157       .  T
C695       N2652   1.157       .  T
C696        N699   1.157       .  T
N700       C2647   1.157       .  T
C705        C706   1.406       .  A
C705        C710   1.394       .  A
C705        C719   1.444       .  S
C706        C711   1.478       .  S
C706        C707   1.403       .  A
C707        C708   1.402       .  A
C707        H726   1.087       .  S
C708        C709   1.413       .  A
C708        C720   1.443       .  S
C709        C710   1.406       .  A
C710        H725   1.087       .  S
C711        C712   1.400       .  A
C711        C716   1.410       .  A
C712        C713   1.399       .  A
C712        H727   1.084       .  S
C713        C714   1.415       .  A
C713        C717   1.445       .  S
C714        C715   1.402       .  A
C715        C716   1.398       .  A
C715        H728   1.083       .  S
C716        C718   1.444       .  S
C717        N721   1.157       .  T
C718        N722   1.157       .  T
C719        N724   1.157       .  T
C720        N723   1.157       .  T
C729        C730   1.409       .  A
C729        C734   1.401       .  A
C729        C743   1.443       .  S
C730        C735   1.476       .  S
C730        C731   1.398       .  A
C731        C732   1.396       .  A
C731        H750   1.085       .  S
C732        C733   1.417       .  A
C732        C744   1.446       .  S
C733        C734   1.404       .  A
C734        H749   1.084       .  S
C735        C736   1.402       .  A
C735        C740   1.409       .  A
C736        C737   1.401       .  A
C736        H751   1.084       .  S
C737        C738   1.411       .  A
C737        C741   1.445       .  S
C738        C739   1.402       .  A
C739        C740   1.397       .  A
C739        H752   1.085       .  S
C740        C742   1.445       .  S
C741        N745   1.157       .  T
C742        N746   1.157       .  T
C743        N748   1.157       .  T
C744        N747   1.158       .  T
C753        C754   1.408       .  A
C753        C758   1.397       .  A
C753        C767   1.445       .  S
C754        C759   1.479       .  S
C754        C755   1.400       .  A
C755        C756   1.401       .  A
C755        H774   1.085       .  S
C756        C757   1.418       .  A
C756        C768   1.444       .  S
C757        C758   1.406       .  A
C758        H773   1.085       .  S
C759        C760   1.401       .  A
C759        C764   1.408       .  A
C760        C761   1.399       .  A
C760        H775   1.084       .  S
C761        C762   1.416       .  A
C761        C765   1.444       .  S
C762        C763   1.405       .  A
C763        C764   1.398       .  A
C763        H776   1.084       .  S
C764        C766   1.444       .  S
C765        N769   1.157       .  T
C766        N770   1.157       .  T
C767        N772   1.157       .  T
C768        N771   1.157       .  T
C777        C778   1.413       .  A
C777        C782   1.403       .  A
C777        C791   1.444       .  S
C778        C783   1.489   1_655  S
C778        C779   1.403       .  A
C779        C780   1.402       .  A
C779        H798   1.084       .  S
C780        C781   1.412       .  A
C780        C792   1.444       .  S
C781        C782   1.404       .  A
C782        H797   1.083       .  S
C783        C784   1.405       .  A
C783        C788   1.408       .  A
C784        C785   1.405       .  A
C784        H799   1.088       .  S
C785        C786   1.415       .  A
C785        C789   1.443       .  S
C786        C787   1.409       .  A
C787        C788   1.399       .  A
C787        H800   1.087       .  S
C788        C790   1.444   1_455  S
C789        N793   1.157       .  T
C790        N794   1.157       .  T
C791        N796   1.157   1_655  T
C792        N795   1.157       .  T
C801        C802   1.411       .  A
C801        C806   1.396       .  A
C801        C815   1.445       .  S
C802        C807   1.474       .  S
C802        C803   1.400       .  A
C803        C804   1.396       .  A
C803        H822   1.086       .  S
C804        C805   1.411       .  A
C804        C816   1.444       .  S
C805        C806   1.402       .  A
C806        H821   1.086       .  S
C807        C808   1.396       .  A
C807        C812   1.412   1_455  A
C808        C809   1.393   1_455  A
C808        H823   1.088       .  S
C809        C810   1.415       .  A
C809        C813   1.444       .  S
C810        C811   1.403       .  A
C811        C812   1.400       .  A
C811        H824   1.088       .  S
C812        C814   1.445       .  S
C813        N817   1.157       .  T
C814        N818   1.157       .  T
C815        N820   1.157       .  T
C816       N2771   1.157       .  T
N819       C2768   1.157       .  T
C825        C826   1.408       .  A
C825        C830   1.401       .  A
C825        C839   1.443       .  S
C826        C831   1.481   1_545  S
C826        C827   1.402       .  A
C827        C828   1.401       .  A
C827        H846   1.083   1_545  S
C828        C829   1.415       .  A
C828        C840   1.446       .  S
C829        C830   1.404       .  A
C830        H845   1.084       .  S
C831        C832   1.400       .  A
C831        C836   1.409       .  A
C832        C833   1.403       .  A
C832        H847   1.083       .  S
C833        C834   1.415       .  A
C833        C837   1.444       .  S
C834        C835   1.405       .  A
C835        C836   1.401       .  A
C835        H848   1.083       .  S
C836        C838   1.444   1_565  S
C837        N841   1.157       .  T
C838        N842   1.157       .  T
C839        N844   1.157       .  T
C840        N843   1.158       .  T
C849        C850   1.412       .  A
C849        C854   1.401       .  A
C849        C863   1.444       .  S
C850        C855   1.493       .  S
C850        C851   1.404       .  A
C851        C852   1.403       .  A
C851       H2822   1.084       .  S
C852        C853   1.417       .  A
C852        C864   1.444       .  S
C853        C854   1.406       .  A
C854        H869   1.085       .  S
C855        C856   1.403       .  A
C855        C860   1.412       .  A
C856        C857   1.400       .  A
C856        H871   1.084       .  S
C857        C858   1.416       .  A
C857        C861   1.443   1_554  S
C858        C859   1.410       .  A
C859        C860   1.404       .  A
C859        H872   1.083       .  S
C860        C862   1.445       .  S
C861       N2817   1.157       .  T
C862        N866   1.157       .  T
C863        N868   1.157       .  T
C864       N2819   1.157       .  T
N865       C2813   1.157       .  T
N867       C2816   1.157       .  T
H870       C2803   1.085       .  S
C873        C874   1.407       .  A
C873        C878   1.401       .  A
C873        C887   1.444       .  S
C874        C879   1.481       .  S
C874        C875   1.401       .  A
C875        C876   1.400       .  A
C875        H894   1.084       .  S
C876        C877   1.416       .  A
C876        C888   1.443       .  S
C877        C878   1.409       .  A
C878        H893   1.084       .  S
C879        C880   1.403       .  A
C879        C884   1.407       .  A
C880        C881   1.401       .  A
C880        H895   1.090       .  S
C881        C882   1.412       .  A
C881        C885   1.444       .  S
C882        C883   1.405       .  A
C883        C884   1.398       .  A
C883        H896   1.089       .  S
C884        C886   1.444       .  S
C885        N889   1.157       .  T
C886        N890   1.157       .  T
C887        N892   1.157       .  T
C888        N891   1.157       .  T
C897        C898   1.406       .  A
C897        C902   1.400       .  A
C897        C911   1.444       .  S
C898        C903   1.478       .  S
C898        C899   1.401       .  A
C899        C900   1.398       .  A
C899        H918   1.086       .  S
C900        C901   1.414       .  A
C900        C912   1.444       .  S
C901        C902   1.408       .  A
C902        H917   1.084       .  S
C903        C904   1.396       .  A
C903        C908   1.412       .  A
C904        C905   1.395       .  A
C904        H919   1.087       .  S
C905        C906   1.415       .  A
C905       C2861   1.444   1_554  S
C906        C907   1.404       .  A
C907        C908   1.404       .  A
C907        H920   1.087       .  S
C908        C910   1.444       .  S
C909       C2857   1.444       .  S
C909        N913   1.157       .  T
C910        N914   1.157       .  T
C911        N916   1.157       .  T
C912        N915   1.157       .  T
C921        C922   1.410   1_545  A
C921        C926   1.403       .  A
C921        C935   1.443       .  S
C922        C927   1.489       .  S
C922        C923   1.403       .  A
C923        C924   1.401   1_565  A
C923        H942   1.085       .  S
C924        C925   1.416       .  A
C924        C936   1.444       .  S
C925       C2184   1.487       .  S
C925        C926   1.407       .  A
C926        H941   1.085       .  S
C927        C928   1.402       .  A
C927        C932   1.412       .  A
C928        C929   1.402       .  A
C928        H943   1.084       .  S
C929        C930   1.417       .  A
C929        C933   1.444       .  S
C930        C931   1.406       .  A
C931        C932   1.402       .  A
C931        H944   1.084       .  S
C932        C934   1.444   1_565  S
C933        N937   1.157       .  T
C934        N938   1.157       .  T
C935        N940   1.157       .  T
C936       N2891   1.157   1_554  T
N939       C2888   1.157       .  T
C945        C946   1.411       .  A
C945        C950   1.402       .  A
C945        C959   1.443       .  S
C946        C951   1.486       .  S
C946        C947   1.400       .  A
C947        C948   1.399       .  A
C947        H966   1.089       .  S
C948        C949   1.418       .  A
C948        C960   1.445       .  S
C949        C950   1.404       .  A
C950        H965   1.088       .  S
C951        C952   1.401       .  A
C951        C956   1.412       .  A
C952        C953   1.396       .  A
C952        H967   1.085       .  S
C953        C954   1.414       .  A
C953        C957   1.446       .  S
C954        C955   1.405       .  A
C955        C956   1.407       .  A
C955        H968   1.084       .  S
C956        C958   1.443       .  S
C957        N961   1.157       .  T
C958        N962   1.157       .  T
C959        N964   1.157       .  T
C960        N963   1.157       .  T
C969        C970   1.410       .  A
C969        C974   1.401       .  A
C969        C983   1.443       .  S
C970        C975   1.486       .  S
C970        C971   1.401       .  A
C971        C972   1.402       .  A
C971        H990   1.083       .  S
C972        C973   1.418       .  A
C972        C984   1.444       .  S
C973        C974   1.407       .  A
C974        H989   1.083       .  S
C975        C976   1.402       .  A
C975        C980   1.407       .  A
C976        C977   1.404       .  A
C976        H991   1.086       .  S
C977        C978   1.418       .  A
C977        C981   1.444       .  S
C978        C979   1.408       .  A
C979        C980   1.401       .  A
C979        H992   1.085       .  S
C980        C982   1.443       .  S
C981        N985   1.157       .  T
C982        N986   1.157       .  T
C983        N988   1.157       .  T
C984        N987   1.157       .  T
C993        C994   1.408       .  A
C993       C2950   1.397       .  A
C993       C1007   1.444       .  S
C994        C999   1.475       .  S
C994        C995   1.398       .  A
C995        C996   1.397       .  A
C995       H1014   1.085       .  S
C996       C2949   1.419       .  A
C996       C1008   1.445       .  S
C997        C998   1.405       .  A
C997       C2948   1.419       .  A
C998       C2945   1.397   1_554  A
C998       H1013   1.084       .  S
C999       C1000   1.398       .  A
C999       C1004   1.411       .  A
C1000      C1001   1.395       .  A
C1000      H1015   1.087       .  S
C1001      C1002   1.413       .  A
C1001      C1005   1.445       .  S
C1002      C1003   1.401       .  A
C1003      C1004   1.399       .  A
C1003      H1016   1.087       .  S
C1004      C1006   1.444       .  S
C1005      N1009   1.157       .  T
C1006      N1010   1.157       .  T
C1007      N2964   1.157       .  T
C1008      N1011   1.157       .  T
N1012      C2959   1.157       .  T
C1017      C1018   1.412       .  A
C1017      C1022   1.404       .  A
C1017      C1031   1.443       .  S
C1018      C1023   1.484       .  S
C1018      C1019   1.401       .  A
C1019      C1020   1.395       .  A
C1019      H1038   1.087       .  S
C1020      C1021   1.412       .  A
C1020      C1032   1.445       .  S
C1021      C1022   1.404       .  A
C1022      H1037   1.086       .  S
C1023      C1024   1.399       .  A
C1023      C1028   1.411       .  A
C1024      C1025   1.399       .  A
C1024      H1039   1.083       .  S
C1025      C1026   1.420       .  A
C1025      C1029   1.445       .  S
C1026      C1027   1.405       .  A
C1027      C1028   1.402       .  A
C1027      H1040   1.083       .  S
C1028      C1030   1.444       .  S
C1029      N1033   1.157       .  T
C1030      N1034   1.157       .  T
C1031      N1036   1.157       .  T
C1032      N1035   1.157       .  T
C1041      C1042   1.410       .  A
C1041      C1046   1.400       .  A
C1041      C3007   1.445       .  S
C1042      C1047   1.488       .  S
C1042      C1043   1.403       .  A
C1043      C1044   1.401       .  A
C1043      H1062   1.085       .  S
C1044      C1045   1.415       .  A
C1044      C1056   1.444       .  S
C1045      C1046   1.407       .  A
C1046      H1061   1.084       .  S
C1047      C1048   1.402       .  A
C1047      C1052   1.412       .  A
C1048      C1049   1.400       .  A
C1048      H1063   1.085       .  S
C1049      C1050   1.416   1_554  A
C1049      C1053   1.444       .  S
C1050      C1051   1.405       .  A
C1051      C1052   1.401   1_556  A
C1051      H1064   1.085       .  S
C1052      C1054   1.444   1_554  S
C1053      N1057   1.157       .  T
C1054      N1058   1.157       .  T
C1055      C2993   1.444       .  S
C1055      N1060   1.157       .  T
C1056      N1059   1.157       .  T
C1065      C1066   1.410       .  A
C1065      C1070   1.400       .  A
C1065      C1079   1.445       .  S
C1066      C1071   1.480       .  S
C1066      C1067   1.400       .  A
C1067      C1068   1.402       .  A
C1067      H1086   1.083       .  S
C1068      C1069   1.415       .  A
C1068      C1080   1.443       .  S
C1069      C1070   1.405       .  A
C1070      H1085   1.083       .  S
C1071      C1072   1.401       .  A
C1071      C1076   1.406       .  A
C1072      C1073   1.401       .  A
C1072      H1087   1.084       .  S
C1073      C1074   1.417       .  A
C1073      C1077   1.444       .  S
C1074      C1075   1.407       .  A
C1075      C1076   1.399       .  A
C1075      H1088   1.084       .  S
C1076      C1078   1.443       .  S
C1077      N1081   1.157       .  T
C1078      N1082   1.157       .  T
C1079      N1084   1.157       .  T
C1080      N1083   1.157       .  T
C1089      C1090   1.409       .  A
C1089      C1094   1.397       .  A
C1089      C1103   1.445       .  S
C1090      C1095   1.474       .  S
C1090      C1091   1.398       .  A
C1091      C1092   1.399       .  A
C1091      H1110   1.086       .  S
C1092      C1093   1.414       .  A
C1092      C1104   1.444       .  S
C1093      C1094   1.403       .  A
C1094      H1109   1.086       .  S
C1095      C1096   1.397       .  A
C1095      C1100   1.410       .  A
C1096      C1097   1.397       .  A
C1096      H1111   1.087       .  S
C1097      C1098   1.415       .  A
C1097      C1101   1.445       .  S
C1098      C1099   1.401       .  A
C1099      C1100   1.399       .  A
C1099      H1112   1.087       .  S
C1100      C1102   1.444       .  S
C1101      N1105   1.157       .  T
C1102      N1106   1.157       .  T
C1103      N1108   1.157       .  T
C1104      N1107   1.157       .  T
C1113      C1114   1.410       .  A
C1113      C1118   1.397       .  A
C1113      C1127   1.444       .  S
C1114      C3071   1.478       .  S
C1114      C1115   1.401       .  A
C1115      C1116   1.400       .  A
C1115      H1134   1.088       .  S
C1116      C1117   1.412       .  A
C1116      C1128   1.444       .  S
C1117      C1118   1.402       .  A
C1118      H1133   1.088       .  S
C1119      C3066   1.479       .  S
C1119      C1124   1.405   1_556  A
C1119      C3072   1.402       .  A
C1120      C3071   1.402       .  A
C1120      C3073   1.402       .  A
C1120      H1135   1.087       .  S
C1121      C1122   1.415   1_556  A
C1121      C3072   1.402       .  A
C1121      C3077   1.444       .  S
C1122      C1123   1.409       .  A
C1123      C1124   1.398       .  A
C1123      H1136   1.086       .  S
C1124      C1126   1.444       .  S
C1125      C3073   1.444       .  S
C1125      N1129   1.157       .  T
C1126      N1130   1.157       .  T
C1127      N1132   1.157       .  T
C1128      N1131   1.157       .  T
C1137      C1138   1.407       .  A
C1137      C1142   1.398       .  A
C1137      C1151   1.444       .  S
C1138      C1143   1.483       .  S
C1138      C1139   1.403       .  A
C1139      C1140   1.404       .  A
C1139      H1158   1.085       .  S
C1140      C1141   1.416       .  A
C1140      C1152   1.444       .  S
C1141      C1142   1.407       .  A
C1142      H1157   1.085       .  S
C1143      C1144   1.401       .  A
C1143      C1148   1.409       .  A
C1144      C1145   1.401       .  A
C1144      H1159   1.084       .  S
C1145      C1146   1.415       .  A
C1145      C1149   1.443       .  S
C1146      C1147   1.405       .  A
C1147      C1148   1.400       .  A
C1147      H1160   1.084       .  S
C1148      C1150   1.444       .  S
C1149      N1153   1.157       .  T
C1150      N1154   1.157       .  T
C1151      N1156   1.157       .  T
C1152      N1155   1.157       .  T
C1161      C1162   1.409       .  A
C1161      C1166   1.396       .  A
C1161      C1175   1.444       .  S
C1162      C3119   1.479       .  S
C1162      C3115   1.402       .  A
C1163      C3114   1.403       .  A
C1163      C3116   1.404       .  A
C1163      H1182   1.082   1_556  S
C1164      C1165   1.414       .  A
C1164      C3115   1.403       .  A
C1164      C1176   1.445       .  S
C1165      C1166   1.401       .  A
C1166      H1181   1.084       .  S
C1167      C3114   1.479   1_554  S
C1167      C1168   1.398       .  A
C1167      C1172   1.409       .  A
C1168      C1169   1.399       .  A
C1168      H1183   1.084       .  S
C1169      C1170   1.420       .  A
C1169      C1173   1.446       .  S
C1170      C1171   1.404       .  A
C1171      C1172   1.402       .  A
C1171      H1184   1.084       .  S
C1172      C1174   1.443   1_554  S
C1173      N1177   1.158       .  T
C1174      N1178   1.157       .  T
C1175      N1180   1.157       .  T
C1176      N3131   1.158       .  T
N1179      C3128   1.158       .  T
C1185      C1186   1.411       .  A
C1185      C1190   1.397       .  A
C1185      C1199   1.444       .  S
C1186      C1191   1.475       .  S
C1186      C1187   1.399       .  A
C1187      C1188   1.395       .  A
C1187      H1206   1.085       .  S
C1188      C1189   1.413       .  A
C1188      C1200   1.445       .  S
C1189      C1190   1.402       .  A
C1190      H1205   1.086       .  S
C1191      C1192   1.400       .  A
C1191      C1196   1.406       .  A
C1192      C1193   1.397       .  A
C1192      H1207   1.087       .  S
C1193      C1194   1.415       .  A
C1193      C1197   1.443       .  S
C1194      C1195   1.408       .  A
C1195      C1196   1.397       .  A
C1195      H1208   1.086       .  S
C1196      C1198   1.445       .  S
C1197      N1201   1.157       .  T
C1198      N1202   1.157       .  T
C1199      N1204   1.157       .  T
C1200      N1203   1.157       .  T
C1209      C1210   1.411       .  A
C1209      C1214   1.398       .  A
C1209      C1223   1.445       .  S
C1210      C1215   1.490       .  S
C1210      C1211   1.406       .  A
C1211      C1212   1.401       .  A
C1211      H1230   1.082       .  S
C1212      C1213   1.413       .  A
C1212      C1224   1.444       .  S
C1213      C1214   1.406       .  A
C1214      H1229   1.083       .  S
C1215      C1216   1.408       .  A
C1215      C1220   1.412       .  A
C1216      C1217   1.405       .  A
C1216      H1231   1.082       .  S
C1217      C1218   1.409       .  A
C1217      C1221   1.442       .  S
C1218      C1219   1.404       .  A
C1219      C1220   1.395       .  A
C1219      H1232   1.083       .  S
C1220      C1222   1.445       .  S
C1221      N1225   1.157       .  T
C1222      N1226   1.157       .  T
C1223      N1228   1.157       .  T
C1224      N1227   1.157       .  T
C1233      C1234   1.407       .  A
C1233      C1238   1.395       .  A
C1233      C1247   1.445       .  S
C1234      C1239   1.475       .  S
C1234      C1235   1.401       .  A
C1235      C1236   1.400       .  A
C1235      H1254   1.083       .  S
C1236      C1237   1.414       .  A
C1236      C1248   1.444       .  S
C1237      C1238   1.407       .  A
C1238      H1253   1.082       .  S
C1239      C1240   1.402       .  A
C1239      C1244   1.408       .  A
C1240      C1241   1.400       .  A
C1240      H1255   1.084       .  S
C1241      C1242   1.412       .  A
C1241      C1245   1.443       .  S
C1242      C1243   1.405       .  A
C1243      C1244   1.395       .  A
C1243      H1256   1.084       .  S
C1244      C1246   1.445       .  S
C1245      N1249   1.157       .  T
C1246      N1250   1.157       .  T
C1247      N1252   1.157       .  T
C1248      N1251   1.157       .  T
C1257      C1258   1.413       .  A
C1257      C1262   1.403       .  A
C1257      C1271   1.443       .  S
C1258      C1263   1.488       .  S
C1258      C1259   1.401       .  A
C1259      C1260   1.399       .  A
C1259      H1278   1.085       .  S
C1260      C1261   1.417       .  A
C1260      C1272   1.445       .  S
C1261      C1262   1.403       .  A
C1262      H1277   1.085       .  S
C1263      C1264   1.402       .  A
C1263      C1268   1.411       .  A
C1264      C1265   1.402       .  A
C1264      H1279   1.083       .  S
C1265      C1266   1.418       .  A
C1265      C1269   1.444       .  S
C1266      C1267   1.405       .  A
C1267      C1268   1.401       .  A
C1267      H1280   1.082       .  S
C1268      C1270   1.444       .  S
C1269      N1273   1.157       .  T
C1270      N1274   1.157       .  T
C1271      N1276   1.157       .  T
C1272      N1275   1.158       .  T
C1281      C1282   1.410       .  A
C1281      C1286   1.398       .  A
C1281      C1295   1.444       .  S
C1282      C1287   1.479       .  S
C1282      C3235   1.398       .  A
C1283      C1284   1.398       .  A
C1283      C3234   1.398   1_554  A
C1283      H1302   1.086       .  S
C1284      C1285   1.420       .  A
C1284      C1296   1.445       .  S
C1285      C3238   1.403       .  A
C1286      C3237   1.403       .  A
C1286      H1301   1.085       .  S
C1287      C1288   1.400       .  A
C1287      C1292   1.411       .  A
C1288      C1289   1.393       .  A
C1288      H1303   1.087       .  S
C1289      C1290   1.411       .  A
C1289      C1293   1.444       .  S
C1290      C1291   1.404       .  A
C1291      C1292   1.402       .  A
C1291      H1304   1.087       .  S
C1292      C1294   1.443       .  S
C1293      N1297   1.157       .  T
C1294      N1298   1.157       .  T
C1295      N1300   1.157       .  T
C1296      N1299   1.157       .  T
C1305      C1306   1.414       .  A
C1305      C1310   1.400       .  A
C1305      C3271   1.445       .  S
C1306      C1311   1.494       .  S
C1306      C1307   1.407       .  A
C1307      C1308   1.401       .  A
C1307      H1326   1.083       .  S
C1308      C1309   1.409       .  A
C1308      C1320   1.443       .  S
C1309      C1310   1.405       .  A
C1310      H1325   1.084       .  S
C1311      C1316   1.414       .  A
C1311      C3264   1.409       .  A
C1312      C1313   1.405       .  A
C1312      C3263   1.409   1_554  A
C1312      H1327   1.081       .  S
C1313      C1314   1.410       .  A
C1313      C1317   1.443       .  S
C1314      C1315   1.402   1_554  A
C1315      C3268   1.396       .  A
C1315      H1328   1.082       .  S
C1316      C3267   1.396       .  A
C1316      C1318   1.445       .  S
C1317      N1321   1.157       .  T
C1318      N1322   1.157       .  T
C1319      C3257   1.445   1_554  S
C1319      N1324   1.157       .  T
C1320      N1323   1.157       .  T
C1329      C1330   1.410       .  A
C1329      C1334   1.401       .  A
C1329      C1343   1.444       .  S
C1330      C1335   1.487       .  S
C1330      C1331   1.403       .  A
C1331      C1332   1.398       .  A
C1331      H1350   1.083       .  S
C1332      C1333   1.415       .  A
C1332      C1344   1.444       .  S
C1333      C1334   1.408       .  A
C1334      H1349   1.083       .  S
C1335      C1336   1.405       .  A
C1335      C1340   1.413       .  A
C1336      C1337   1.402       .  A
C1336      H1351   1.083       .  S
C1337      C1338   1.413       .  A
C1337      C1341   1.444       .  S
C1338      C2106   1.479   1_554  S
C1338      C1339   1.403       .  A
C1339      C1340   1.398       .  A
C1339      H1352   1.083   1_554  S
C1340      C1342   1.445       .  S
C1341      N1345   1.157       .  T
C1342      N1346   1.157       .  T
C1343      N1348   1.157       .  T
C1344      N1347   1.157       .  T
C1353      C1354   1.406       .  A
C1353      C1358   1.400       .  A
C1353      C1367   1.444       .  S
C1354      C1359   1.481       .  S
C1354      C1355   1.402       .  A
C1355      C1356   1.400       .  A
C1355      H1374   1.084       .  S
C1356      C1357   1.415       .  A
C1356      C1368   1.444       .  S
C1357      C1358   1.409       .  A
C1358      H1373   1.084       .  S
C1359      C1360   1.403       .  A
C1359      C1364   1.407       .  A
C1360      C1361   1.404       .  A
C1360      H1375   1.084       .  S
C1361      C1362   1.417       .  A
C1361      C1365   1.445       .  S
C1362      C1363   1.404       .  A
C1363      C1364   1.396       .  A
C1363      H1376   1.084       .  S
C1364      C1366   1.444       .  S
C1365      N1369   1.158       .  T
C1366      N1370   1.157       .  T
C1367      N1372   1.157       .  T
C1368      N1371   1.157       .  T
C1377      C1378   1.415       .  A
C1377      C1382   1.402       .  A
C1377      C3343   1.444       .  S
C1378      C3335   1.487       .  S
C1378      C1379   1.400       .  A
C1379      C1380   1.399       .  A
C1379      H1398   1.084       .  S
C1380      C1381   1.417       .  A
C1380      C1392   1.445       .  S
C1381      C1382   1.402       .  A
C1382      H1397   1.084       .  S
C1383      C3330   1.488       .  S
C1383      C1384   1.401       .  A
C1383      C1388   1.414       .  A
C1384      C1385   1.395       .  A
C1384      H3351   1.087       .  S
C1385      C1386   1.413   1_556  A
C1385      C1389   1.445   1_556  S
C1386      C1387   1.405       .  A
C1387      C1388   1.405   1_554  A
C1387      H1400   1.086       .  S
C1388      C1390   1.444       .  S
C1389      N1393   1.157       .  T
C1390      N1394   1.157       .  T
C1391      C3329   1.444       .  S
C1391      N1396   1.157   1_556  T
C1392      N1395   1.157       .  T
H1399      C3336   1.087       .  S
C1401      C1402   1.413       .  A
C1401      C1406   1.400       .  A
C1401      C1415   1.444       .  S
C1402      C1407   1.488       .  S
C1402      C1403   1.403       .  A
C1403      C1404   1.400       .  A
C1403      H1422   1.084       .  S
C1404      C1405   1.416       .  A
C1404      C1416   1.445       .  S
C1405      C1406   1.403       .  A
C1406      H1421   1.085       .  S
C1407      C1408   1.401       .  A
C1407      C1412   1.413       .  A
C1408      C1409   1.398       .  A
C1408      H1423   1.084       .  S
C1409      C1410   1.417       .  A
C1409      C1413   1.445       .  S
C1410      C1411   1.404       .  A
C1411      C1412   1.403       .  A
C1411      H1424   1.084       .  S
C1412      C1414   1.444       .  S
C1413      N1417   1.157       .  T
C1414      N1418   1.157       .  T
C1415      N1420   1.157       .  T
C1416      N1419   1.157       .  T
C1425      C1426   1.412       .  A
C1425      C1430   1.400       .  A
C1425      C1439   1.444       .  S
C1426      C1431   1.482   1_655  S
C1426      C1427   1.398       .  A
C1427      C1428   1.396       .  A
C1427      H1446   1.085   1_655  S
C1428      C1429   1.420       .  A
C1428      C1440   1.445       .  S
C1429      C1430   1.405       .  A
C1430      H1445   1.084       .  S
C1431      C1432   1.404       .  A
C1431      C1436   1.412       .  A
C1432      C1433   1.400       .  A
C1432      H1447   1.084       .  S
C1433      C1434   1.410       .  A
C1433      C3389   1.444       .  S
C1434      C1435   1.401       .  A
C1435      C1436   1.396       .  A
C1435      H1448   1.086       .  S
C1436      C1438   1.445       .  S
C1437      C3385   1.444       .  S
C1437      N1441   1.157       .  T
C1438      N1442   1.157       .  T
C1439      N1444   1.157       .  T
C1440      N1443   1.157       .  T
C1449      C1450   1.413   1_655  A
C1449      C1454   1.401       .  A
C1449      C1463   1.444       .  S
C1450      C1455   1.483       .  S
C1450      C1451   1.400       .  A
C1451      C1452   1.398   1_455  A
C1451      H1470   1.085       .  S
C1452      C1453   1.415       .  A
C1452      C1464   1.446       .  S
C1453      C1454   1.402       .  A
C1454      H1469   1.086       .  S
C1455      C1456   1.404       .  A
C1455      C1460   1.407       .  A
C1456      C1457   1.403       .  A
C1456      H1471   1.084       .  S
C1457      C1458   1.415       .  A
C1457      C1461   1.443       .  S
C1458      C1459   1.409       .  A
C1459      C1460   1.397       .  A
C1459      H1472   1.083       .  S
C1460      C1462   1.444       .  S
C1461      N1465   1.157       .  T
C1462      N1466   1.157       .  T
C1463      N1468   1.157       .  T
C1464      N1467   1.158       .  T
C1473      C1474   1.410       .  A
C1473      C1478   1.400       .  A
C1473      C1487   1.444       .  S
C1474      C1479   1.484       .  S
C1474      C1475   1.402       .  A
C1475      C1476   1.397       .  A
C1475      H1494   1.084       .  S
C1476      C1477   1.413       .  A
C1476      C1488   1.444       .  S
C1477      C1478   1.406       .  A
C1478      H1493   1.083       .  S
C1479      C1480   1.403       .  A
C1479      C1484   1.409       .  A
C1480      C1481   1.400       .  A
C1480      H1495   1.086       .  S
C1481      C1482   1.416       .  A
C1481      C1485   1.444       .  S
C1482      C1483   1.408       .  A
C1483      C1484   1.398       .  A
C1483      H1496   1.085       .  S
C1484      C1486   1.445       .  S
C1485      N1489   1.157       .  T
C1486      N1490   1.157       .  T
C1487      N1492   1.157       .  T
C1488      N1491   1.157       .  T
C1497      C1498   1.407       .  A
C1497      C1502   1.401       .  A
C1497      C1511   1.444       .  S
C1498      C1503   1.479       .  S
C1498      C1499   1.402       .  A
C1499      C3452   1.396       .  A
C1499      H1518   1.084       .  S
C1500      C1501   1.411       .  A
C1500      C3451   1.396       .  A
C1500      C1512   1.443       .  S
C1501      C3454   1.409       .  A
C1502      C3453   1.409       .  A
C1502      H3469   1.084       .  S
C1503      C1504   1.401       .  A
C1503      C1508   1.409       .  A
C1504      C1505   1.402       .  A
C1504      H1519   1.085       .  S
C1505      C1506   1.415       .  A
C1505      C1509   1.443       .  S
C1506      C1507   1.404       .  A
C1507      C1508   1.395       .  A
C1507      H1520   1.086       .  S
C1508      C1510   1.445       .  S
C1509      N1513   1.157       .  T
C1510      N3466   1.157       .  T
C1511      N1516   1.157       .  T
C1512      N1515   1.157   1_554  T
N1514      C3462   1.157       .  T
H1517      C3454   1.084       .  S
C1521      C1522   1.410       .  A
C1521      C1526   1.397       .  A
C1521      C1535   1.443       .  S
C1522      C1527   1.477       .  S
C1522      C1523   1.402       .  A
C1523      C1524   1.397       .  A
C1523      H1542   1.082       .  S
C1524      C1525   1.411       .  A
C1524      C1536   1.445       .  S
C1525      C1526   1.401       .  A
C1526      H1541   1.083       .  S
C1527      C1528   1.403       .  A
C1527      C1532   1.407       .  A
C1528      C1529   1.400       .  A
C1528      H1543   1.084       .  S
C1529      C1530   1.411       .  A
C1529      C1533   1.443       .  S
C1530      C1531   1.407       .  A
C1531      C1532   1.397       .  A
C1531      H1544   1.082       .  S
C1532      C1534   1.445       .  S
C1533      N1537   1.157       .  T
C1534      N1538   1.157       .  T
C1535      N1540   1.157       .  T
C1536      N1539   1.157       .  T
C1545      C1546   1.412       .  A
C1545      C1550   1.400       .  A
C1545      C1559   1.445       .  S
C1546      C1551   1.485       .  S
C1546      C1547   1.400       .  A
C1547      C1548   1.399       .  A
C1547      H1566   1.088       .  S
C1548      C1549   1.418       .  A
C1548      C1560   1.444       .  S
C1549      C1550   1.405       .  A
C1550      H1565   1.086       .  S
C1551      C1552   1.401       .  A
C1551      C1556   1.413       .  A
C1552      C1553   1.401       .  A
C1552      H1567   1.084       .  S
C1553      C1554   1.417       .  A
C1553      C1557   1.444       .  S
C1554      C1555   1.403       .  A
C1555      C1556   1.399       .  A
C1555      H1568   1.084       .  S
C1556      C1558   1.444       .  S
C1557      N1561   1.157       .  T
C1558      N1562   1.157       .  T
C1559      N1564   1.157       .  T
C1560      N1563   1.157       .  T
C1569      C1570   1.407       .  A
C1569      C1574   1.394       .  A
C1569      C1583   1.444       .  S
C1570      C1575   1.478       .  S
C1570      C1571   1.405       .  A
C1571      C1572   1.400       .  A
C1571      H1590   1.083       .  S
C1572      C1573   1.409       .  A
C1572      C1584   1.444       .  S
C1573      C1574   1.404       .  A
C1574      H1589   1.085   1_554  S
C1575      C1576   1.403       .  A
C1575      C1580   1.408       .  A
C1576      C1577   1.400       .  A
C1576      H1591   1.085       .  S
C1577      C1578   1.411       .  A
C1577      C1581   1.443       .  S
C1578      C1579   1.406       .  A
C1579      C1580   1.396       .  A
C1579      H1592   1.085       .  S
C1580      C1582   1.445       .  S
C1581      N1585   1.157       .  T
C1582      N1586   1.157       .  T
C1583      N1588   1.157   1_554  T
C1584      N3539   1.157       .  T
N1587      C3536   1.157       .  T
C1593      C1594   1.407       .  A
C1593      C1598   1.395       .  A
C1593      C1607   1.445       .  S
C1594      C1599   1.475       .  S
C1594      C1595   1.403       .  A
C1595      C1596   1.401       .  A
C1595      H1614   1.088       .  S
C1596      C1597   1.409       .  A
C1596      C1608   1.443       .  S
C1597      C1598   1.403       .  A
C1598      H1613   1.086       .  S
C1599      C1600   1.400       .  A
C1599      C1604   1.405       .  A
C1600      C1601   1.396       .  A
C1600      H1615   1.085       .  S
C1601      C1602   1.415       .  A
C1601      C1605   1.444       .  S
C1602      C1603   1.409       .  A
C1603      C1604   1.398       .  A
C1603      H1616   1.085       .  S
C1604      C1606   1.444       .  S
C1605      N1609   1.157       .  T
C1606      N1610   1.157       .  T
C1607      N1612   1.157       .  T
C1608      N1611   1.157       .  T
C1617      C1618   1.404       .  A
C1617      C1622   1.396       .  A
C1617      C1631   1.444       .  S
C1618      C1623   1.471       .  S
C1618      C1619   1.400   1_554  A
C1619      C1620   1.398       .  A
C1619      H1638   1.083       .  S
C1620      C1621   1.416       .  A
C1620      C1632   1.444       .  S
C1621      C1622   1.408   1_556  A
C1622      H1637   1.083       .  S
C1623      C1624   1.399       .  A
C1623      C1628   1.405       .  A
C1624      C1625   1.397       .  A
C1624      H1639   1.086       .  S
C1625      C1626   1.415       .  A
C1625      C1629   1.444       .  S
C1626      C1627   1.407       .  A
C1627      C1628   1.398       .  A
C1627      H1640   1.085       .  S
C1628      C3582   1.444       .  S
C1629      N1633   1.157       .  T
C1630      C3580   1.444       .  S
C1630      N1634   1.157       .  T
C1631      N1636   1.157       .  T
C1632      N1635   1.157       .  T
C1641      C1642   1.415       .  A
C1641      C1646   1.404       .  A
C1641      C1655   1.444       .  S
C1642      C1647   1.493       .  S
C1642      C1643   1.402       .  A
C1643      C1644   1.399       .  A
C1643      H1662   1.089       .  S
C1644      C1645   1.415       .  A
C1644      C1656   1.445       .  S
C1645      C1646   1.404       .  A
C1646      H1661   1.087       .  S
C1647      C1648   1.407       .  A
C1647      C1652   1.411       .  A
C1648      C1649   1.402       .  A
C1648      H1663   1.087       .  S
C1649      C1650   1.412       .  A
C1649      C1653   1.443       .  S
C1650      C1651   1.407       .  A
C1651      C1652   1.400       .  A
C1651      H1664   1.087       .  S
C1652      C1654   1.444       .  S
C1653      N1657   1.157       .  T
C1654      N1658   1.157       .  T
C1655      N1660   1.157       .  T
C1656      N1659   1.157       .  T
C1665      C1666   1.410       .  A
C1665      C1670   1.400       .  A
C1665      C1679   1.443       .  S
C1666      C1671   1.482       .  S
C1666      C1667   1.400       .  A
C1667      C1668   1.400       .  A
C1667      H1686   1.087       .  S
C1668      C1669   1.418       .  A
C1668      C1680   1.446       .  S
C1669      C1670   1.403       .  A
C1670      H1685   1.088       .  S
C1671      C1672   1.400       .  A
C1671      C1676   1.409       .  A
C1672      C3625   1.400       .  A
C1672      H3639   1.087       .  S
C1673      C1674   1.415   1_556  A
C1673      C3624   1.399       .  A
C1673      C1677   1.444       .  S
C1674      C3627   1.406       .  A
C1675      C1676   1.402       .  A
C1675      C3626   1.406       .  A
C1675      H1688   1.086       .  S
C1676      C1678   1.444       .  S
C1677      N1681   1.157       .  T
C1678      N1682   1.157       .  T
C1679      N3636   1.157       .  T
C1680      N1683   1.158       .  T
N1684      C3631   1.157   1_554  T
H1687      C3624   1.087       .  S
C1689      C1690   1.413       .  A
C1689      C1694   1.399       .  A
C1689      C1703   1.444       .  S
C1690      C1695   1.486       .  S
C1690      C1691   1.401       .  A
C1691      C1692   1.399       .  A
C1691      H1710   1.087       .  S
C1692      C1693   1.419       .  A
C1692      C1704   1.445       .  S
C1693      C1694   1.402       .  A
C1694      H1709   1.088       .  S
C1695      C1696   1.402   1_455  A
C1695      C1700   1.413   1_455  A
C1696      C1697   1.398       .  A
C1696      H1711   1.086       .  S
C1697      C1698   1.414       .  A
C1697      C1701   1.445       .  S
C1698      C1699   1.403       .  A
C1699      C1700   1.399       .  A
C1699      H1712   1.086       .  S
C1700      C1702   1.444   1_655  S
C1701      N3657   1.157       .  T
C1702      N1706   1.157       .  T
C1703      N1708   1.157       .  T
C1704      N1707   1.158       .  T
N1705      C3653   1.157       .  T
C1713      C1714   1.411       .  A
C1713      C1718   1.403   1_455  A
C1713      C1727   1.444       .  S
C1714      C1719   1.484       .  S
C1714      C1715   1.401       .  A
C1715      C1716   1.397   1_455  A
C1715      H1734   1.081       .  S
C1716      C1717   1.415       .  A
C1716      C1728   1.445       .  S
C1717      C1718   1.405       .  A
C1718      H1733   1.081       .  S
C1719      C1720   1.399       .  A
C1719      C1724   1.412       .  A
C1720      C1721   1.396       .  A
C1720      H1735   1.083       .  S
C1721      C1722   1.418       .  A
C1721      C1725   1.446       .  S
C1722      C1723   1.403       .  A
C1723      C1724   1.403       .  A
C1723      H1736   1.083       .  S
C1724      C1726   1.444       .  S
C1725      N1729   1.157       .  T
C1726      N1730   1.157       .  T
C1727      N1732   1.157       .  T
C1728      N1731   1.157       .  T
C1737      C1738   1.411       .  A
C1737      C1742   1.402       .  A
C1737      C1751   1.445       .  S
C1738      C1743   1.493       .  S
C1738      C1739   1.405       .  A
C1739      C1740   1.401       .  A
C1739      H1758   1.081       .  S
C1740      C1741   1.414       .  A
C1740      C3704   1.444   1_554  S
C1741      C2037   1.489       .  S
C1741      C1742   1.409       .  A
C1742      H1757   1.083       .  S
C1743      C1744   1.406       .  A
C1743      C1748   1.412       .  A
C1744      C1745   1.401       .  A
C1744      H1759   1.082       .  S
C1745      C1746   1.413       .  A
C1745      C1749   1.444       .  S
C1746      C1747   1.406       .  A
C1747      C1748   1.403       .  A
C1747      H1760   1.083       .  S
C1748      C1750   1.444       .  S
C1749      N1753   1.157       .  T
C1750      N1754   1.157       .  T
C1751      N1756   1.157       .  T
C1752      C3692   1.443       .  S
C1752      N1755   1.157       .  T
C1761      C1762   1.409       .  A
C1761      C1766   1.402       .  A
C1761      C1775   1.443       .  S
C1762      C1767   1.490       .  S
C1762      C1763   1.402       .  A
C1763      C1764   1.405       .  A
C1763      H1782   1.086       .  S
C1764      C1765   1.418       .  A
C1764      C1776   1.444       .  S
C1765      C1766   1.407       .  A
C1766      H1781   1.085       .  S
C1767      C1768   1.403       .  A
C1767      C1772   1.408       .  A
C1768      C1769   1.406       .  A
C1768      H1783   1.084       .  S
C1769      C1770   1.418       .  A
C1769      C1773   1.443       .  S
C1770      C1771   1.409       .  A
C1771      C1772   1.403       .  A
C1771      H1784   1.084       .  S
C1772      C1774   1.444       .  S
C1773      N1777   1.157       .  T
C1774      N1778   1.157       .  T
C1775      N1780   1.157       .  T
C1776      N1779   1.157       .  T
C1785      C1786   1.408       .  A
C1785      C1790   1.392       .  A
C1785      C1799   1.445       .  S
C1786      C1791   1.482       .  S
C1786      C1787   1.406       .  A
C1787      C1788   1.400       .  A
C1787      H1806   1.086       .  S
C1788      C1789   1.412       .  A
C1788      C1800   1.444       .  S
C1789      C1790   1.405       .  A
C1790      H1805   1.087       .  S
C1791      C1792   1.404       .  A
C1791      C1796   1.409       .  A
C1792      C1793   1.396       .  A
C1792      H1807   1.085       .  S
C1793      C1794   1.413       .  A
C1793      C1797   1.445       .  S
C1794      C1795   1.405       .  A
C1795      C1796   1.398       .  A
C1795      H1808   1.086       .  S
C1796      C1798   1.444       .  S
C1797      N1801   1.157       .  T
C1798      N1802   1.157       .  T
C1799      N1804   1.157       .  T
C1800      N1803   1.157       .  T
C1809      C1810   1.410       .  A
C1809      C1814   1.400       .  A
C1809      C1823   1.444       .  S
C1810      C1815   1.477       .  S
C1810      C1811   1.398       .  A
C1811      C1812   1.397       .  A
C1811      H1830   1.086       .  S
C1812      C1813   1.418       .  A
C1812      C3776   1.445   1_554  S
C1813      C1814   1.404       .  A
C1814      H1829   1.086       .  S
C1815      C1816   1.401       .  A
C1815      C1820   1.408       .  A
C1816      C1817   1.397       .  A
C1816      H1831   1.086       .  S
C1817      C1818   1.412       .  A
C1817      C1821   1.444       .  S
C1818      C1819   1.406       .  A
C1819      C1820   1.400       .  A
C1819      H1832   1.084       .  S
C1820      C1822   1.444       .  S
C1821      N1825   1.157       .  T
C1822      N1826   1.157       .  T
C1823      N1828   1.157       .  T
C1824      C3764   1.445       .  S
C1824      N1827   1.157       .  T
C1833      C1834   1.410       .  A
C1833      C1838   1.396       .  A
C1833      C1847   1.444       .  S
C1834      C1839   1.479       .  S
C1834      C1835   1.401       .  A
C1835      C1836   1.400       .  A
C1835      H1854   1.084       .  S
C1836      C1837   1.415       .  A
C1836      C1848   1.444       .  S
C1837      C1838   1.403       .  A
C1838      H1853   1.084       .  S
C1839      C1840   1.399       .  A
C1839      C1844   1.411       .  A
C1840      C1841   1.398       .  A
C1840      H1855   1.088       .  S
C1841      C1842   1.415       .  A
C1841      C1845   1.443       .  S
C1842      C1843   1.405       .  A
C1843      C1844   1.400       .  A
C1843      H1856   1.087       .  S
C1844      C1846   1.446       .  S
C1845      N1849   1.157       .  T
C1846      N1850   1.158       .  T
C1847      N1852   1.157       .  T
C1848      N1851   1.157       .  T
C1857      C1858   1.408       .  A
C1857      C1862   1.399       .  A
C1857      C1871   1.445       .  S
C1858      C1863   1.488       .  S
C1858      C1859   1.405       .  A
C1859      C1860   1.403       .  A
C1859      H1878   1.082       .  S
C1860      C1861   1.415       .  A
C1860      C1872   1.443       .  S
C1861      C1862   1.409       .  A
C1862      H1877   1.082       .  S
C1863      C1864   1.406       .  A
C1863      C3820   1.409       .  A
C1864      C3817   1.403       .  A
C1864      H1879   1.089       .  S
C1865      C1866   1.411   1_556  A
C1865      C3816   1.403       .  A
C1865      C3821   1.443       .  S
C1866      C1867   1.405       .  A
C1867      C1868   1.396       .  A
C1867      H1880   1.089       .  S
C1868      C3815   1.409   1_554  A
C1868      C1870   1.444       .  S
C1869      C3817   1.443       .  S
C1869      N1873   1.157       .  T
C1870      N1874   1.157       .  T
C1871      N1876   1.157       .  T
C1872      N1875   1.157       .  T
C1881      C1882   1.411       .  A
C1881      C1886   1.402       .  A
C1881      C1895   1.444       .  S
C1882      C1887   1.478       .  S
C1882      C1883   1.398       .  A
C1883      C1884   1.395       .  A
C1883      H1902   1.082       .  S
C1884      C1885   1.417       .  A
C1884      C1896   1.445       .  S
C1885      C1886   1.404       .  A
C1886      H1901   1.081       .  S
C1887      C1888   1.399       .  A
C1887      C1892   1.410       .  A
C1888      C1889   1.396       .  A
C1888      H1903   1.084       .  S
C1889      C1890   1.415       .  A
C1889      C1893   1.445       .  S
C1890      C1891   1.404       .  A
C1891      C1892   1.401       .  A
C1891      H1904   1.084       .  S
C1892      C1894   1.444       .  S
C1893      N1897   1.157       .  T
C1894      N1898   1.157       .  T
C1895      N1900   1.157       .  T
C1896      N1899   1.157       .  T
C1905      C1910   1.403       .  A
C1905      C3858   1.414   1_554  A
C1905      C1919   1.445       .  S
C1906      C1911   1.492       .  S
C1906      C1907   1.403       .  A
C1906      C3857   1.414       .  A
C1907      C3860   1.401       .  A
C1907      H1926   1.086       .  S
C1908      C1909   1.415       .  A
C1908      C3859   1.401   1_554  A
C1908      C3872   1.444       .  S
C1909      C1910   1.405       .  A
C1910      H1925   1.085       .  S
C1911      C1912   1.403       .  A
C1911      C1916   1.413       .  A
C1912      C1913   1.404       .  A
C1912      H1927   1.084       .  S
C1913      C1914   1.417       .  A
C1913      C1917   1.444       .  S
C1914      C1915   1.405       .  A
C1915      C1916   1.402       .  A
C1915      H1928   1.084       .  S
C1916      C1918   1.445       .  S
C1917      N1921   1.157       .  T
C1918      N1922   1.157       .  T
C1919      N1924   1.157       .  T
C1920      C3860   1.444       .  S
C1920      N1923   1.157       .  T
C1929      C1930   1.408       .  A
C1929      C1934   1.400       .  A
C1929      C1943   1.444       .  S
C1930      C1935   1.483       .  S
C1930      C1931   1.402       .  A
C1931      C1932   1.403       .  A
C1931      H1950   1.085       .  S
C1932      C1933   1.417       .  A
C1932      C1944   1.444       .  S
C1933      C1934   1.407       .  A
C1934      H1949   1.084       .  S
C1935      C1936   1.402       .  A
C1935      C1940   1.408       .  A
C1936      C1937   1.402       .  A
C1936      H1951   1.085       .  S
C1937      C1938   1.417       .  A
C1937      C1941   1.444       .  S
C1938      C1939   1.406       .  A
C1939      C1940   1.397       .  A
C1939      H1952   1.085       .  S
C1940      C1942   1.444       .  S
C1941      N1945   1.158       .  T
C1942      N1946   1.157       .  T
C1943      N1948   1.157       .  T
C1944      N1947   1.157       .  T
In1953     O1955   2.206       .  S
In1953     O1956   2.254       .  S
In1953     O1964   2.237       .  S
In1953     O1958   2.245       .  S
In1953     O1960   2.260       .  S
In1953     O1961   2.256       .  S
In1953     O1962   2.209       .  S
In1953     O1965   2.221       .  S
C1954      O1960   1.268       .  A
C1954      O1962   1.260       .  A
C1954      C3818   1.480       .  S
O1955      C1963   1.260       .  A
O1956      C1963   1.268       .  A
C1957      O1964   1.264       .  A
C1957      O1958   1.265       .  A
C1957      C3885   1.488       .  S
C1959      O1961   1.266       .  A
C1959      O1965   1.262       .  A
C1959      C3861   1.485       .  S
C1963      C3837   1.476       .  S
In1966     O1968   2.225       .  S
In1966     O1969   2.238       .  S
In1966     O1977   2.224       .  S
In1966     O1971   2.237       .  S
In1966     O1973   2.253       .  S
In1966     O1974   2.256       .  S
In1966     O1975   2.202       .  S
In1966     O1978   2.224       .  S
C1967      O1973   1.264       .  A
C1967      O1975   1.258       .  A
C1967      C3741   1.476       .  S
O1968      C1976   1.260       .  A
O1969      C1976   1.265       .  A
C1970      O1977   1.264       .  A
C1970      O1971   1.263       .  A
C1970      C3890   1.484       .  S
C1972      O1974   1.264       .  A
C1972      O1978   1.260       .  A
C1972      C3794   1.481       .  S
C1976      C3770   1.474       .  S
In1979     O1981   2.199       .  S
In1979     O1982   2.259       .  S
In1979     O1990   2.241       .  S
In1979     O1984   2.247       .  S
In1979     O1986   2.249       .  S
In1979     O1987   2.247       .  S
In1979     O1988   2.224       .  S
In1979     O1991   2.230       .  S
C1980      O1986   1.269       .  A
C1980      O1988   1.260       .  A
C1980      C3645   1.482       .  S
O1981      C1989   1.260       .  A
O1982      C1989   1.269       .  A
C1983      O1990   1.265       .  A
C1983      O1984   1.265       .  A
C1983      C3717   1.492       .  S
C1985      O1987   1.266       .  A
C1985      O1991   1.262       .  A
C1985      C3698   1.483       .  S
C1989      C3674   1.478       .  S
In1992     O1994   2.214       .  S
In1992     O1995   2.260       .  S
In1992     O2003   2.244       .  S
In1992     O1997   2.255       .  S
In1992     O1999   2.260       .  S
In1992     O2000   2.257       .  S
In1992     O2001   2.217       .  S
In1992     O2004   2.236       .  S
C1993      O1999   1.268       .  A
C1993      O2001   1.259       .  A
C1993      C3621   1.481       .  S
O1994      C2002   1.261       .  A
O1995      C2002   1.269       .  A
C1996      O2003   1.264       .  A
C1996      O1997   1.266       .  A
C1996      C3722   1.496       .  S
C1998      O2000   1.267       .  A
C1998      O2004   1.261       .  A
C1998      C3866   1.489       .  S
C2002      C3597   1.486       .  S
In2005     O2010   2.233       .  S
In2005     O2012   2.252       .  S
In2005     O2013   2.231       .  S
In2005     O2014   2.209       .  S
In2005     O2017   2.221       .  S
C2006      O2012   1.267       .  A
C2006      O2014   1.259       .  A
C2006      C3549   1.469       .  S
O2007      C2015   1.262       .  A
O2008      C2015   1.266       .  A
C2009      O2016   1.261       .  A
C2009      C3573   1.479       .  S
C2011      O2013   1.264       .  A
C2011      O2017   1.261       .  A
C2011      C3789   1.477       .  S
C2015      C3525   1.470       .  S
In2018     O2020   2.226       .  S
In2018     O2021   2.241       .  S
In2018     O2029   2.222       .  S
In2018     O2023   2.226       .  S
In2018     O2025   2.239       .  S
In2018     O2026   2.245       .  S
In2018     O2027   2.206       .  S
In2018     O2030   2.208       .  S
C2019      O2025   1.267       .  A
C2019      O2027   1.260       .  A
C2019      C3477   1.465       .  S
O2020      C2028   1.259       .  A
O2021      C2028   1.266       .  A
C2022      O2029   1.263       .  A
C2022      O2023   1.264       .  A
C2022      C3578   1.477       .  S
C2024      O2026   1.268       .  A
C2024      O2030   1.262       .  A
C2024      C3501   1.485       .  S
C2028      C3453   1.479       .  S
In2031     O2033   2.210       .  S
In2031     O2034   2.260       .  S
In2031     O2042   2.233       .  S
In2031     O2036   2.220       .  S
In2031     O2038   2.244   1_556  S
In2031     O2039   2.245       .  S
In2031     O2040   2.213   1_556  S
C2032      C3386   1.468       .  S
O2033      C2041   1.260       .  A
O2034      C2041   1.268       .  A
C2035      O2042   1.264       .  A
C2035      O2036   1.264       .  A
C2035      C3429   1.479       .  S
C2037      O2039   1.267   1_554  A
C2041      C3410   1.487       .  S
In2044     O2046   2.205       .  S
In2044     O2047   2.251       .  S
In2044     O2055   2.219       .  S
In2044     O2049   2.232       .  S
In2044     O2051   2.253       .  S
In2044     O2052   2.244       .  S
In2044     O2053   2.205       .  S
In2044     O2056   2.215       .  S
C2045      O2051   1.271       .  A
C2045      O2053   1.262       .  A
C2045      C3362   1.483       .  S
O2046      C2054   1.262       .  A
O2047      C2054   1.271       .  A
C2048      O2055   1.264       .  A
C2048      O2049   1.267       .  A
C2048      C3434   1.486       .  S
C2050      O2052   1.269       .  A
C2050      O2056   1.263       .  A
C2050      C3506   1.483       .  S
C2054      C3333   1.481       .  S
In2057     O2059   2.226       .  S
In2057     O2060   2.225       .  S
In2057     O2068   2.219       .  S
In2057     O2062   2.241       .  S
In2057     O2064   2.249       .  S
In2057     O2065   2.230       .  S
In2057     O2066   2.199       .  S
In2057     O2069   2.215       .  S
C2058      O2064   1.270       .  A
C2058      O2066   1.261       .  A
C2058      C3530   1.475       .  S
O2059      C2067   1.264       .  A
O2060      C2067   1.266       .  A
C2061      O2068   1.262       .  A
C2061      O2062   1.267       .  A
C2061      C3309   1.486       .  S
C2063      O2065   1.266       .  A
C2063      O2069   1.262       .  A
C2063      C3554   1.480       .  S
C2067      C3285   1.484       .  S
In2070     O2072   2.231       .  S
In2070     O2073   2.243       .  S
In2070     O2081   2.238       .  S
In2070     O2075   2.236       .  S
In2070     O2077   2.253       .  S
In2070     O2078   2.257       .  S
In2070     O2079   2.203       .  S
In2070     O2082   2.226       .  S
C2071      O2077   1.267       .  A
C2071      O2079   1.260       .  A
C2071      C3242   1.470       .  S
O2072      C2080   1.262       .  A
O2073      C2080   1.266       .  A
C2074      O2081   1.261       .  A
C2074      O2075   1.264       .  A
C2074      C3314   1.483       .  S
C2076      O2078   1.266       .  A
C2076      O2082   1.259       .  A
C2076      C3218   1.487       .  S
C2080      C3261   1.480       .  S
In2083     O2085   2.209       .  S
In2083     O2086   2.268       .  S
In2083     O2094   2.236       .  S
In2083     O2088   2.213       .  S
In2083     O2090   2.238       .  S
In2083     O2091   2.245       .  S
In2083     O2092   2.212       .  S
In2083     O2095   2.219       .  S
C2084      O2090   1.264       .  A
C2084      O2092   1.259       .  A
C2084      C3141   1.468       .  S
O2085      C2093   1.258       .  A
O2086      C2093   1.266       .  A
C2087      O2094   1.264       .  A
C2087      O2088   1.262       .  A
C2087      C3189   1.479       .  S
C2089      O2091   1.267       .  A
C2089      O2095   1.260       .  A
C2089      C3117   1.474       .  S
C2093      C3170   1.477       .  S
In2096     O2099   2.235       .  S
In2096     O2107   2.217       .  S
In2096     O2101   2.238       .  S
In2096     O2104   2.229       .  S
In2096     O2105   2.209       .  S
In2096     O2108   2.218       .  S
C2097      O2103   1.267       .  A
C2097      C3765   1.480       .  S
O2099      C2106   1.263       .  A
C2100      O2107   1.261       .  A
C2100      O2101   1.264       .  A
C2100      C3194   1.474       .  S
C2102      O2104   1.266       .  A
C2102      O2108   1.262       .  A
C2102      C3746   1.476       .  S
In2109     O2111   2.217       .  S
In2109     O2112   2.253       .  S
In2109     O2120   2.224       .  S
In2109     O2114   2.250       .  S
In2109     O2116   2.250       .  S
In2109     O2117   2.245       .  S
In2109     O2118   2.217       .  S
In2109     O2121   2.214       .  S
C2110      O2116   1.267       .  A
C2110      O2118   1.261       .  A
C2110      C3074   1.485       .  S
O2111      C2119   1.261       .  A
O2112      C2119   1.266       .  A
C2113      O2120   1.263       .  A
C2113      O2114   1.266       .  A
C2113      C3093   1.486       .  S
C2115      O2117   1.267       .  A
C2115      O2121   1.261       .  A
C2115      C3045   1.474       .  S
C2119      C3266   1.478       .  S
In2122     O2124   2.224       .  S
In2122     O2125   2.247       .  S
In2122     O2133   2.232       .  S
In2122     O2127   2.235       .  S
In2122     O2129   2.256       .  S
In2122     O2130   2.249       .  S
In2122     O2131   2.207       .  S
In2122     O2134   2.206       .  S
C2123      O2129   1.268       .  A
C2123      O2131   1.260       .  A
C2123      C3405   1.476       .  S
O2124      C2132   1.262       .  A
O2125      C2132   1.267       .  A
C2126      O2133   1.263       .  A
C2126      O2127   1.266       .  A
C2126      C3098   1.482       .  S
C2128      O2130   1.269       .  A
C2128      O2134   1.260       .  A
C2128      C3381   1.483       .  S
C2132      C3021   1.481       .  S
In2135     O2137   2.217       .  S
In2135     O2138   2.237       .  S
In2135     O2146   2.227       .  S
In2135     O2140   2.236       .  S
In2135     O2142   2.260       .  S
In2135     O2143   2.232       .  S
In2135     O2144   2.201       .  S
In2135     O2147   2.207       .  S
C2136      O2142   1.270       .  A
C2136      O2144   1.260       .  A
C2136      C2973   1.475       .  S
O2137      C2145   1.264       .  A
O2138      C2145   1.267       .  A
C2139      O2146   1.263       .  A
C2139      O2140   1.267       .  A
C2139      C2997   1.486       .  S
C2141      O2143   1.268       .  A
C2141      O2147   1.261       .  A
C2141      C2949   1.479       .  S
C2145      C3165   1.481       .  S
In2148     O2150   2.232       .  S
In2148     O2151   2.239       .  S
In2148     O2153   2.248       .  S
In2148     O2155   2.261       .  S
In2148     O2157   2.215       .  S
C2149      O2155   1.266       .  A
C2149      O2157   1.258       .  A
C2149      C3669   1.480       .  S
O2150      C2158   1.263       .  A
O2151      C2158   1.263       .  A
C2152      O2159   1.261       .  A
C2152      C3002   1.485       .  S
C2154      O2156   1.264       .  A
C2154      O2160   1.260       .  A
C2154      C3650   1.477       .  S
C2158      C3026   1.483       .  S
In2161     O2163   2.219       .  S
In2161     O2164   2.257       .  S
In2161     O2172   2.235       .  S
In2161     O2166   2.229       .  S
In2161     O2168   2.244       .  S
In2161     O2169   2.262       .  S
In2161     O2170   2.204       .  S
In2161     O2173   2.211       .  S
C2162      O2168   1.268       .  A
C2162      O2170   1.261       .  A
C2162      C3842   1.477       .  S
O2163      C2171   1.261       .  A
O2164      C2171   1.270       .  A
C2165      O2172   1.265       .  A
C2165      O2166   1.266       .  A
C2165      C2925   1.486       .  S
C2167      O2169   1.270       .  A
C2167      O2173   1.261       .  A
C2167      C3813   1.489       .  S
C2171      C2901   1.485       .  S
In2174     O2177   2.254       .  S
In2174     O2185   2.247       .  S
In2174     O2179   2.244       .  S
In2174     O2182   2.246       .  S
In2174     O2183   2.212   1_556  S
In2174     O2186   2.231       .  S
C2175      O2181   1.265       .  A
C2175      C2858   1.475       .  S
O2177      C2184   1.263   1_556  A
C2178      O2185   1.263       .  A
C2178      O2179   1.263       .  A
C2178      C2930   1.492       .  S
C2180      O2182   1.266       .  A
C2180      O2186   1.262       .  A
C2180      C2829   1.486       .  S
In2187     O2189   2.212       .  S
In2187     O2190   2.261       .  S
In2187     O2198   2.242       .  S
In2187     O2192   2.246       .  S
In2187     O2194   2.260       .  S
In2187     O2195   2.253       .  S
In2187     O2196   2.222       .  S
In2187     O2199   2.220       .  S
C2188      O2194   1.267       .  A
C2188      O2196   1.260       .  A
C2188      C3602   1.485       .  S
O2189      C2197   1.260       .  A
O2190      C2197   1.266       .  A
C2191      O2198   1.263       .  A
C2191      O2192   1.265       .  A
C2191      C2805   1.490       .  S
C2193      O2195   1.266       .  A
C2193      O2199   1.261       .  A
C2193      C3626   1.482       .  S
C2197      C2906   1.480       .  S
In2200     O2202   2.227       .  S
In2200     O2203   2.236       .  S
In2200     O2205   2.242       .  S
In2200     O2207   2.276       .  S
In2200     O2209   2.218       .  S
C2201      O2207   1.269       .  A
C2201      O2209   1.259       .  A
C2201      C2738   1.492       .  S
O2202      C2210   1.262       .  A
O2203      C2210   1.264       .  A
C2204      O2211   1.264       .  A
C2204      C2810   1.492       .  S
C2206      O2208   1.266       .  A
C2206      O2212   1.262       .  A
C2206      C2757   1.468       .  S
C2210      C2781   1.477       .  S
In2213     O2215   2.228       .  S
In2213     O2216   2.259       .  S
In2213     O2224   2.229       .  S
In2213     O2218   2.235       .  S
In2213     O2220   2.258       .  S
In2213     O2221   2.252       .  S
In2213     O2222   2.206       .  S
In2213     O2225   2.206       .  S
C2214      O2220   1.266       .  A
C2214      O2222   1.260       .  A
C2214      C2661   1.479       .  S
O2215      C2223   1.260       .  A
O2216      C2223   1.265       .  A
C2217      O2224   1.263       .  A
C2217      O2218   1.263       .  A
C2217      C2709   1.484       .  S
C2219      O2221   1.268       .  A
C2219      O2225   1.260       .  A
C2219      C2685   1.479       .  S
C2223      C2882   1.489       .  S
In2226     O2228   2.225       .  S
In2226     O2229   2.245       .  S
In2226     O2237   2.230       .  S
In2226     O2231   2.235       .  S
In2226     O2233   2.247       .  S
In2226     O2234   2.251       .  S
In2226     O2235   2.216       .  S
In2226     O2238   2.216       .  S
C2227      O2233   1.266       .  A
C2227      O2235   1.262       .  A
C2227      C3458   1.478       .  S
O2228      C2236   1.262       .  A
O2229      C2236   1.266       .  A
C2230      O2237   1.260       .  A
C2230      O2231   1.264       .  A
C2230      C2714   1.481       .  S
C2232      O2234   1.265       .  A
C2232      O2238   1.259       .  A
C2232      C3482   1.477       .  S
C2236      C2637   1.479       .  S
In2239     O2241   2.226       .  S
In2239     O2242   2.256       .  S
In2239     O2250   2.233       .  S
In2239     O2244   2.233       .  S
In2239     O2246   2.250       .  S
In2239     O2247   2.257       .  S
In2239     O2248   2.202       .  S
In2239     O2251   2.206       .  S
C2240      O2246   1.266       .  A
C2240      O2248   1.258       .  A
C2240      C2565   1.467       .  S
O2241      C2249   1.260       .  A
O2242      C2249   1.266       .  A
C2243      O2250   1.266       .  A
C2243      O2244   1.264       .  A
C2243      C2618   1.482       .  S
C2245      O2247   1.269       .  A
C2245      O2251   1.261       .  A
C2245      C2594   1.483       .  S
C2249      C2786   1.482       .  S
In2252     O2254   2.225       .  S
In2252     O2255   2.261       .  S
In2252     O2263   2.243       .  S
In2252     O2257   2.239       .  S
In2252     O2259   2.259       .  S
In2252     O2260   2.252       .  S
In2252     O2261   2.214       .  S
In2252     O2264   2.220       .  S
C2253      O2259   1.267       .  A
C2253      O2261   1.260       .  A
C2253      C3338   1.479       .  S
O2254      C2262   1.261       .  A
O2255      C2262   1.265       .  A
C2256      O2263   1.262       .  A
C2256      O2257   1.263       .  A
C2256      C2613   1.488       .  S
C2258      O2260   1.266       .  A
C2258      O2264   1.259       .  A
C2258      C3357   1.482       .  S
C2262      C2642   1.477       .  S
In2265     O2267   2.214       .  S
In2265     O2268   2.229       .  S
In2265     O2276   2.228       .  S
In2265     O2270   2.245       .  S
In2265     O2272   2.266       .  S
In2265     O2273   2.235       .  S
In2265     O2274   2.200       .  S
In2265     O2277   2.242       .  S
C2266      O2272   1.270       .  A
C2266      O2274   1.258       .  A
C2266      C3122   1.483       .  S
O2267      C2275   1.263       .  A
O2268      C2275   1.267       .  A
C2269      O2276   1.263       .  A
C2269      O2270   1.267       .  A
C2269      C2546   1.487       .  S
C2271      O2273   1.264       .  A
C2271      O2277   1.264       .  A
C2271      C2522   1.485       .  S
C2275      C3146   1.480       .  S
In2278     O2280   2.215       .  S
In2278     O2281   2.236       .  S
In2278     O2289   2.227       .  S
In2278     O2283   2.233       .  S
In2278     O2285   2.248       .  S
In2278     O2286   2.244       .  S
In2278     O2287   2.220       .  S
In2278     O2290   2.227       .  S
C2279      O2285   1.266       .  A
C2279      O2287   1.260       .  A
C2279      C2834   1.478       .  S
O2280      C2288   1.261       .  A
O2281      C2288   1.267       .  A
C2282      O2289   1.263       .  A
C2282      O2283   1.264       .  A
C2282      C2541   1.477       .  S
C2284      O2286   1.265       .  A
C2284      O2290   1.262       .  A
C2284      C2493   1.483       .  S
C2288      C2853   1.479       .  S
In2291     O2293   2.211       .  S
In2291     O2294   2.239       .  S
In2291     O2302   2.233       .  S
In2291     O2296   2.246       .  S
In2291     O2298   2.259       .  S
In2291     O2299   2.251       .  S
In2291     O2300   2.212       .  S
In2291     O2303   2.222       .  S
C2292      O2298   1.270       .  A
C2292      O2300   1.261       .  A
C2292      C3213   1.482       .  S
O2293      C2301   1.262       .  A
O2294      C2301   1.269       .  A
C2295      O2302   1.263       .  A
C2295      O2296   1.267       .  A
C2295      C2474   1.488       .  S
C2297      O2299   1.267       .  A
C2297      O2303   1.263       .  A
C2297      C2450   1.486       .  S
C2301      C3237   1.481       .  S
In2304     O2309   2.240       .  S
In2304     O2311   2.236       .  S
In2304     O2312   2.239       .  S
In2304     O2313   2.227       .  S
In2304     O2316   2.230       .  S
C2305      O2311   1.265       .  A
C2305      O2313   1.259       .  A
C2305      C2690   1.470       .  S
O2306      C2314   1.258       .  A
O2307      C2314   1.267       .  A
C2308      O2315   1.264       .  A
C2308      C2469   1.487       .  S
C2310      O2312   1.266       .  A
C2310      O2316   1.263       .  A
C2310      C2498   1.486       .  S
C2314      C2666   1.473       .  S
In2317     O2319   2.199       .  S
In2317     O2320   2.242       .  S
In2317     O2328   2.223       .  S
In2317     O2322   2.237       .  S
In2317     O2324   2.252   1_556  S
In2317     O2325   2.239       .  S
In2317     O2326   2.215       .  S
C2318      C2589   1.477       .  S
O2319      C2327   1.261       .  A
O2320      C2327   1.267       .  A
C2321      O2328   1.263       .  A
C2321      O2322   1.266       .  A
C2321      C2421   1.483       .  S
C2323      O2325   1.265   1_554  A
C2327      C2570   1.477       .  S
In2330     O2332   2.221       .  S
In2330     O2333   2.241       .  S
In2330     O2341   2.215       .  S
In2330     O2335   2.257       .  S
In2330     O2337   2.261       .  S
In2330     O2338   2.248       .  S
In2330     O2339   2.200       .  S
In2330     O2342   2.239       .  S
C2331      O2337   1.267       .  A
C2331      O2339   1.258       .  A
C2331      C3050   1.471       .  S
O2332      C2340   1.261       .  A
O2333      C2340   1.264       .  A
C2334      O2341   1.259       .  A
C2334      O2335   1.264       .  A
C2334      C2426   1.485       .  S
C2336      O2338   1.261       .  A
C2336      O2342   1.260       .  A
C2336      C2445   1.478       .  S
C2340      C3069   1.473       .  S
In2343     O2345   2.225       .  S
In2343     O2346   2.259       .  S
In2343     O2354   2.236       .  S
In2343     O2348   2.228       .  S
In2343     O2350   2.261       .  S
In2343     O2351   2.245       .  S
In2343     O2352   2.203       .  S
In2343     O2355   2.232       .  S
C2344      O2350   1.265       .  A
C2344      O2352   1.257       .  A
C2344      C2762   1.474       .  S
O2345      C2353   1.261       .  A
O2346      C2353   1.265       .  A
C2347      O2354   1.264       .  A
C2347      O2348   1.264       .  A
C2347      C2378   1.485       .  S
C2349      O2351   1.264       .  A
C2349      O2355   1.260       .  A
C2349      C2402   1.480       .  S
C2353      C2733   1.481       .  S
In2356     O2358   2.209       .  S
In2356     O2359   2.259       .  S
In2356     O2367   2.231       .  S
In2356     O2361   2.222       .  S
In2356     O2363   2.244       .  S
In2356     O2364   2.256       .  S
In2356     O2365   2.208       .  S
In2356     O2368   2.225       .  S
C2357      O2363   1.266       .  A
C2357      O2365   1.261       .  A
C2357      C2954   1.469       .  S
O2358      C2366   1.260       .  A
O2359      C2366   1.271       .  A
C2360      O2367   1.264       .  A
C2360      O2361   1.265       .  A
C2360      C2373   1.483       .  S
C2362      O2364   1.268       .  A
C2362      O2368   1.261       .  A
C2362      C2517   1.490       .  S
C2366      C2978   1.487       .  S
C2369      C2370   1.409       .  A
C2369      C2374   1.397       .  A
C2369      C2383   1.445       .  S
C2370      C2375   1.479       .  S
C2370      C2371   1.400       .  A
C2371      C2372   1.401       .  A
C2371      H2390   1.084       .  S
C2372      C2373   1.417       .  A
C2372      C2384   1.444       .  S
C2373      C2374   1.406       .  A
C2374      H2389   1.085       .  S
C2375      C2376   1.401       .  A
C2375      C2380   1.407       .  A
C2376      C2377   1.402       .  A
C2376      H2391   1.085       .  S
C2377      C2378   1.418       .  A
C2377      C2381   1.444       .  S
C2378      C2379   1.407       .  A
C2379      C2380   1.397       .  A
C2379      H2392   1.085       .  S
C2380      C2382   1.445       .  S
C2381      N2385   1.157       .  T
C2382      N2386   1.157       .  T
C2383      N2388   1.157       .  T
C2384      N2387   1.157       .  T
C2393      C2394   1.411       .  A
C2393      C2398   1.398       .  A
C2393      C2407   1.444       .  S
C2394      C2399   1.488       .  S
C2394      C2395   1.405       .  A
C2395      C2396   1.399       .  A
C2395      H2414   1.083   1_565  S
C2396      C2397   1.413       .  A
C2396      C2408   1.444       .  S
C2397      C2398   1.405       .  A
C2398      H2413   1.084       .  S
C2399      C2400   1.405       .  A
C2399      C2404   1.412   1_565  A
C2400      C2401   1.399   1_565  A
C2400      H2415   1.082       .  S
C2401      C2402   1.413       .  A
C2401      C2405   1.445   1_545  S
C2402      C2403   1.406       .  A
C2403      C2404   1.401       .  A
C2403      H2416   1.083       .  S
C2404      C2406   1.444       .  S
C2405      N2409   1.157       .  T
C2406      N2410   1.157       .  T
C2407      N2412   1.157       .  T
C2408      N2411   1.157       .  T
C2417      C2418   1.410       .  A
C2417      C2422   1.400       .  A
C2417      C2431   1.444       .  S
C2418      C2423   1.483       .  S
C2418      C2419   1.401       .  A
C2419      C2420   1.397       .  A
C2419      H2438   1.088       .  S
C2420      C2421   1.415       .  A
C2420      C2432   1.444       .  S
C2421      C2422   1.406       .  A
C2422      H2437   1.087       .  S
C2423      C2424   1.399       .  A
C2423      C2428   1.411       .  A
C2424      C2425   1.396       .  A
C2424      H2439   1.082       .  S
C2425      C2426   1.418       .  A
C2425      C2429   1.444       .  S
C2426      C2427   1.407       .  A
C2427      C2428   1.403       .  A
C2427      H2440   1.082       .  S
C2428      C2430   1.444       .  S
C2429      N2433   1.157       .  T
C2430      N2434   1.157       .  T
C2431      N2436   1.157       .  T
C2432      N2435   1.157       .  T
C2441      C2442   1.413       .  A
C2441      C2446   1.403       .  A
C2441      C2455   1.443       .  S
C2442      C2447   1.490       .  S
C2442      C2443   1.404       .  A
C2443      C2444   1.400       .  A
C2443      H2462   1.084       .  S
C2444      C2445   1.413       .  A
C2444      C2456   1.445       .  S
C2445      C2446   1.403       .  A
C2446      H2461   1.083       .  S
C2447      C2448   1.406       .  A
C2447      C2452   1.412       .  A
C2448      C2449   1.404       .  A
C2448      H2463   1.083       .  S
C2449      C2450   1.414       .  A
C2449      C2453   1.443       .  S
C2450      C2451   1.406       .  A
C2451      C2452   1.399       .  A
C2451      H2464   1.082       .  S
C2452      C2454   1.445       .  S
C2453      N2457   1.157       .  T
C2454      N2458   1.157       .  T
C2455      N2460   1.157       .  T
C2456      N2459   1.158       .  T
C2465      C2466   1.409       .  A
C2465      C2470   1.399       .  A
C2465      C2479   1.443       .  S
C2466      C2471   1.489       .  S
C2466      C2467   1.405       .  A
C2467      C2468   1.403       .  A
C2467      H2486   1.084       .  S
C2468      C2469   1.416       .  A
C2468      C2480   1.444       .  S
C2469      C2470   1.407       .  A
C2470      H2485   1.084       .  S
C2471      C2472   1.405       .  A
C2471      C2476   1.410       .  A
C2472      C2473   1.403       .  A
C2472      H2487   1.086       .  S
C2473      C2474   1.414       .  A
C2473      C2477   1.443       .  S
C2474      C2475   1.407       .  A
C2475      C2476   1.401       .  A
C2475      H2488   1.085       .  S
C2477      N2481   1.157       .  T
C2478      N2482   1.157       .  T
C2479      N2484   1.157       .  T
C2480      N2483   1.158       .  T
C2489      C2490   1.410       .  A
C2489      C2494   1.401       .  A
C2489      C2503   1.444       .  S
C2490      C2495   1.486   1_545  S
C2490      C2491   1.403       .  A
C2491      C2492   1.400       .  A
C2491      H2510   1.086   1_545  S
C2492      C2493   1.414       .  A
C2492      C2504   1.444       .  S
C2493      C2494   1.406       .  A
C2494      H2509   1.085       .  S
C2495      C2496   1.403   1_565  A
C2495      C2500   1.409       .  A
C2496      C2497   1.399   1_545  A
C2496      H2511   1.082       .  S
C2497      C2498   1.415       .  A
C2497      C2501   1.444       .  S
C2498      C2499   1.408       .  A
C2499      C2500   1.402       .  A
C2499      H2512   1.082       .  S
C2500      C2502   1.444       .  S
C2501      N2505   1.157       .  T
C2502      N2506   1.157       .  T
C2503      N2508   1.157       .  T
C2504      N2507   1.157       .  T
C2513      C2514   1.409       .  A
C2513      C2518   1.402       .  A
C2514      C2519   1.489       .  S
C2514      C2515   1.404       .  A
C2515      C2516   1.403       .  A
C2515      H2534   1.082       .  S
C2516      C2517   1.415       .  A
C2516      C2528   1.443       .  S
C2517      C2518   1.409       .  A
C2518      H2533   1.082       .  S
C2519      C2524   1.410       .  A
C2520      C2521   1.401       .  A
C2520      H2535   1.082       .  S
C2521      C2522   1.415       .  A
C2521      C2525   1.445       .  S
C2522      C2523   1.407       .  A
C2523      H2536   1.082       .  S
C2524      C2526   1.443       .  S
C2525      N2529   1.157       .  T
C2526      N2530   1.157       .  T
C2527      N2532   1.157       .  T
C2528      N2531   1.157       .  T
C2537      C2538   1.410       .  A
C2537      C2542   1.399       .  A
C2537      C2551   1.444       .  S
C2538      C2543   1.482       .  S
C2538      C2539   1.402       .  A
C2539      C2540   1.400       .  A
C2539      H2558   1.085       .  S
C2540      C2541   1.414       .  A
C2540      C2552   1.445       .  S
C2541      C2542   1.404       .  A
C2542      H2557   1.086       .  S
C2543      C2544   1.402       .  A
C2543      C2548   1.408       .  A
C2544      C2545   1.400       .  A
C2544      H2559   1.085       .  S
C2545      C2546   1.415       .  A
C2545      C2549   1.443       .  S
C2546      C2547   1.409       .  A
C2547      C2548   1.401       .  A
C2547      H2560   1.083       .  S
C2548      C2550   1.445       .  S
C2549      N2553   1.157       .  T
C2550      N2554   1.157       .  T
C2551      N2556   1.157       .  T
C2552      N2555   1.157       .  T
C2561      C2562   1.411       .  A
C2561      C2566   1.397       .  A
C2561      C2575   1.444       .  S
C2562      C2567   1.473   1_455  S
C2562      C2563   1.398       .  A
C2563      C2564   1.395       .  A
C2563      H2582   1.086   1_455  S
C2564      C2565   1.413       .  A
C2564      C2576   1.445       .  S
C2565      C2566   1.400       .  A
C2566      H2581   1.086       .  S
C2567      C2568   1.402       .  A
C2567      C2572   1.404       .  A
C2568      C2569   1.401       .  A
C2568      H2583   1.084       .  S
C2569      C2570   1.415       .  A
C2569      C2573   1.444       .  S
C2570      C2571   1.406       .  A
C2571      C2572   1.393       .  A
C2571      H2584   1.085       .  S
C2572      C2574   1.444       .  S
C2573      N2577   1.158       .  T
C2574      N2578   1.157       .  T
C2575      N2580   1.157       .  T
C2576      N2579   1.157       .  T
C2585      C2586   1.411   1_655  A
C2585      C2590   1.400       .  A
C2585      C2599   1.444       .  S
C2586      C2591   1.480       .  S
C2586      C2587   1.399       .  A
C2587      C2588   1.398   1_455  A
C2587      H2606   1.087       .  S
C2588      C2589   1.416       .  A
C2589      C2590   1.403       .  A
C2590      H2605   1.088       .  S
C2591      C2592   1.398       .  A
C2591      C2596   1.409       .  A
C2592      C2593   1.398       .  A
C2592      H2607   1.087       .  S
C2593      C2594   1.417       .  A
C2593      C2597   1.444       .  S
C2594      C2595   1.406       .  A
C2595      C2596   1.402       .  A
C2595      H2608   1.086       .  S
C2596      C2598   1.444       .  S
C2597      N2601   1.157       .  T
C2598      N2602   1.157       .  T
C2599      N2604   1.157       .  T
C2600      N2603   1.157       .  T
C2609      C2610   1.409       .  A
C2609      C2614   1.399       .  A
C2609      C2623   1.444       .  S
C2610      C2615   1.483       .  S
C2610      C2611   1.401       .  A
C2611      C2612   1.403       .  A
C2611      H2630   1.085       .  S
C2612      C2613   1.418       .  A
C2612      C2624   1.444       .  S
C2613      C2614   1.406       .  A
C2614      H2629   1.085       .  S
C2615      C2616   1.403       .  A
C2615      C2620   1.408       .  A
C2616      C2617   1.404       .  A
C2616      H2631   1.084       .  S
C2617      C2618   1.415       .  A
C2617      C2621   1.444       .  S
C2618      C2619   1.404       .  A
C2619      C2620   1.398       .  A
C2619      H2632   1.085       .  S
C2620      C2622   1.444       .  S
C2621      N2625   1.157       .  T
C2622      N2626   1.157       .  T
C2623      N2628   1.157       .  T
C2624      N2627   1.157       .  T
C2633      C2634   1.415       .  A
C2633      C2638   1.399       .  A
C2633      C2647   1.444   1_556  S
C2634      C2639   1.497       .  S
C2634      C2635   1.408       .  A
C2635      C2636   1.402       .  A
C2635      H2654   1.084       .  S
C2636      C2637   1.410       .  A
C2636      C2648   1.444       .  S
C2637      C2638   1.404       .  A
C2638      H2653   1.085       .  S
C2639      C2644   1.416       .  A
C2640      C2641   1.406       .  A
C2640      H2655   1.087       .  S
C2641      C2642   1.410       .  A
C2641      C2645   1.443       .  S
C2642      C2643   1.400       .  A
C2643      H2656   1.089       .  S
C2644      C2646   1.445       .  S
C2645      N2649   1.157       .  T
C2646      N2650   1.157       .  T
C2648      N2651   1.157       .  T
C2657      C2658   1.405       .  A
C2657      C2662   1.394       .  A
C2657      C2671   1.444       .  S
C2658      C2663   1.477       .  S
C2658      C2659   1.403       .  A
C2659      C2660   1.402       .  A
C2659      H2678   1.087       .  S
C2660      C2661   1.413       .  A
C2660      C2672   1.444       .  S
C2661      C2662   1.406       .  A
C2662      H2677   1.087       .  S
C2663      C2664   1.400       .  A
C2663      C2668   1.410       .  A
C2664      C2665   1.399       .  A
C2664      H2679   1.084       .  S
C2665      C2666   1.414       .  A
C2665      C2669   1.445       .  S
C2666      C2667   1.402       .  A
C2667      C2668   1.398       .  A
C2667      H2680   1.083       .  S
C2668      C2670   1.444       .  S
C2669      N2673   1.157       .  T
C2670      N2674   1.157       .  T
C2671      N2676   1.157       .  T
C2672      N2675   1.157       .  T
C2681      C2682   1.409       .  A
C2681      C2686   1.401       .  A
C2681      C2695   1.443       .  S
C2682      C2687   1.477       .  S
C2682      C2683   1.398       .  A
C2683      C2684   1.396       .  A
C2683      H2702   1.085       .  S
C2684      C2685   1.418       .  A
C2684      C2696   1.446       .  S
C2685      C2686   1.404       .  A
C2686      H2701   1.084       .  S
C2687      C2688   1.402       .  A
C2687      C2692   1.410       .  A
C2688      C2689   1.401       .  A
C2688      H2703   1.084       .  S
C2689      C2690   1.411       .  A
C2689      C2693   1.445       .  S
C2690      C2691   1.402       .  A
C2691      C2692   1.397       .  A
C2691      H2704   1.085       .  S
C2692      C2694   1.445       .  S
C2693      N2697   1.157       .  T
C2694      N2698   1.157       .  T
C2695      N2700   1.157       .  T
C2696      N2699   1.158       .  T
C2705      C2706   1.407       .  A
C2705      C2710   1.397       .  A
C2705      C2719   1.444       .  S
C2706      C2711   1.479       .  S
C2706      C2707   1.400       .  A
C2707      C2708   1.401       .  A
C2707      H2726   1.085       .  S
C2708      C2709   1.418       .  A
C2708      C2720   1.444       .  S
C2709      C2710   1.406       .  A
C2710      H2725   1.085       .  S
C2711      C2712   1.400       .  A
C2711      C2716   1.408       .  A
C2712      C2713   1.400       .  A
C2712      H2727   1.084       .  S
C2713      C2714   1.417       .  A
C2713      C2717   1.444       .  S
C2714      C2715   1.406       .  A
C2715      C2716   1.398       .  A
C2715      H2728   1.084       .  S
C2716      C2718   1.444       .  S
C2717      N2721   1.157       .  T
C2718      N2722   1.157       .  T
C2719      N2724   1.157       .  T
C2720      N2723   1.157       .  T
C2729      C2730   1.413       .  A
C2729      C2734   1.403       .  A
C2729      C2743   1.444       .  S
C2730      C2735   1.489   1_655  S
C2730      C2731   1.403       .  A
C2731      C2732   1.402       .  A
C2731      H2750   1.084       .  S
C2732      C2733   1.412       .  A
C2732      C2744   1.444       .  S
C2733      C2734   1.404       .  A
C2734      H2749   1.083       .  S
C2735      C2736   1.405       .  A
C2735      C2740   1.408       .  A
C2736      C2737   1.405       .  A
C2736      H2751   1.088       .  S
C2737      C2738   1.415       .  A
C2737      C2741   1.443       .  S
C2738      C2739   1.410       .  A
C2739      C2740   1.400       .  A
C2739      H2752   1.087       .  S
C2740      C2742   1.444   1_455  S
C2741      N2745   1.157       .  T
C2742      N2746   1.157       .  T
C2743      N2748   1.157   1_655  T
C2744      N2747   1.157       .  T
C2753      C2754   1.411       .  A
C2753      C2758   1.396       .  A
C2753      C2767   1.445       .  S
C2754      C2759   1.474       .  S
C2754      C2755   1.400       .  A
C2755      C2756   1.396       .  A
C2755      H2774   1.086       .  S
C2756      C2757   1.411       .  A
C2756      C2768   1.444       .  S
C2757      C2758   1.402       .  A
C2758      H2773   1.086       .  S
C2759      C2760   1.396       .  A
C2759      C2764   1.412   1_455  A
C2760      C2761   1.393   1_455  A
C2760      H2775   1.088       .  S
C2761      C2762   1.415       .  A
C2761      C2765   1.444       .  S
C2762      C2763   1.403       .  A
C2763      C2764   1.400       .  A
C2763      H2776   1.088       .  S
C2764      C2766   1.445       .  S
C2765      N2769   1.157       .  T
C2766      N2770   1.157       .  T
C2767      N2772   1.157       .  T
C2777      C2778   1.408       .  A
C2777      C2782   1.401       .  A
C2777      C2791   1.443       .  S
C2778      C2783   1.481   1_545  S
C2778      C2779   1.402       .  A
C2779      C2780   1.401       .  A
C2779      H2798   1.083   1_545  S
C2780      C2781   1.415       .  A
C2780      C2792   1.446       .  S
C2781      C2782   1.404       .  A
C2782      H2797   1.084       .  S
C2783      C2784   1.400       .  A
C2783      C2788   1.410       .  A
C2784      C2785   1.403       .  A
C2784      H2799   1.083       .  S
C2785      C2786   1.415       .  A
C2785      C2789   1.444       .  S
C2786      C2787   1.405       .  A
C2787      C2788   1.401       .  A
C2787      H2800   1.083       .  S
C2788      C2790   1.444   1_565  S
C2789      N2793   1.157       .  T
C2790      N2794   1.157       .  T
C2791      N2796   1.157       .  T
C2792      N2795   1.158       .  T
C2801      C2802   1.412       .  A
C2801      C2806   1.401       .  A
C2801      C2815   1.444       .  S
C2802      C2807   1.492       .  S
C2802      C2803   1.404       .  A
C2803      C2804   1.403       .  A
C2804      C2805   1.417       .  A
C2804      C2816   1.444       .  S
C2805      C2806   1.406       .  A
C2806      H2821   1.085       .  S
C2807      C2808   1.403       .  A
C2807      C2812   1.411       .  A
C2808      C2809   1.400       .  A
C2808      H2823   1.084       .  S
C2809      C2810   1.416       .  A
C2809      C2813   1.443       .  S
C2810      C2811   1.410       .  A
C2811      C2812   1.404       .  A
C2811      H2824   1.083       .  S
C2812      C2814   1.444       .  S
C2814      N2818   1.157       .  T
C2815      N2820   1.157       .  T
C2825      C2826   1.407       .  A
C2825      C2830   1.401       .  A
C2825      C2839   1.444       .  S
C2826      C2831   1.482       .  S
C2826      C2827   1.401       .  A
C2827      C2828   1.400       .  A
C2827      H2846   1.084       .  S
C2828      C2829   1.416       .  A
C2828      C2840   1.443       .  S
C2829      C2830   1.409       .  A
C2830      H2845   1.084       .  S
C2831      C2832   1.403       .  A
C2831      C2836   1.408       .  A
C2832      C2833   1.401       .  A
C2832      H2847   1.090       .  S
C2833      C2834   1.412       .  A
C2833      C2837   1.444       .  S
C2834      C2835   1.406       .  A
C2835      C2836   1.398       .  A
C2835      H2848   1.089       .  S
C2836      C2838   1.444       .  S
C2837      N2841   1.157       .  T
C2838      N2842   1.157       .  T
C2839      N2844   1.157       .  T
C2840      N2843   1.157       .  T
C2849      C2850   1.406       .  A
C2849      C2854   1.399       .  A
C2849      C2863   1.444       .  S
C2850      C2855   1.477       .  S
C2850      C2851   1.401       .  A
C2851      C2852   1.397       .  A
C2851      H2870   1.086       .  S
C2852      C2853   1.414       .  A
C2852      C2864   1.444       .  S
C2853      C2854   1.408       .  A
C2854      H2869   1.084       .  S
C2855      C2856   1.396       .  A
C2855      C2860   1.413       .  A
C2856      C2857   1.394       .  A
C2856      H2871   1.087       .  S
C2857      C2858   1.415       .  A
C2858      C2859   1.403       .  A
C2859      C2860   1.404       .  A
C2859      H2872   1.087       .  S
C2860      C2862   1.444       .  S
C2861      N2865   1.157       .  T
C2862      N2866   1.157       .  T
C2863      N2868   1.157       .  T
C2864      N2867   1.157       .  T
C2873      C2874   1.410   1_545  A
C2873      C2878   1.402       .  A
C2873      C2887   1.443       .  S
C2874      C2879   1.489       .  S
C2874      C2875   1.403       .  A
C2875      C2876   1.401   1_565  A
C2875      H2894   1.085       .  S
C2876      C2877   1.416       .  A
C2876      C2888   1.444       .  S
C2877      C2878   1.407       .  A
C2878      H2893   1.085       .  S
C2879      C2880   1.402       .  A
C2879      C2884   1.412       .  A
C2880      C2881   1.402       .  A
C2880      H2895   1.084       .  S
C2881      C2882   1.418       .  A
C2881      C2885   1.444       .  S
C2882      C2883   1.406       .  A
C2883      C2884   1.403       .  A
C2883      H2896   1.084       .  S
C2884      C2886   1.444   1_565  S
C2885      N2889   1.157       .  T
C2886      N2890   1.157       .  T
C2887      N2892   1.157       .  T
C2897      C2898   1.411       .  A
C2897      C2902   1.403       .  A
C2897      C2911   1.443       .  S
C2898      C2903   1.487       .  S
C2898      C2899   1.400       .  A
C2899      C2900   1.399       .  A
C2899      H2918   1.089       .  S
C2900      C2901   1.418       .  A
C2900      C2912   1.445       .  S
C2901      C2902   1.404       .  A
C2902      H2917   1.088       .  S
C2903      C2904   1.401       .  A
C2903      C2908   1.412       .  A
C2904      C2905   1.396       .  A
C2904      H2919   1.085       .  S
C2905      C2906   1.414       .  A
C2905      C2909   1.446       .  S
C2906      C2907   1.405       .  A
C2907      C2908   1.407       .  A
C2907      H2920   1.084       .  S
C2908      C2910   1.443       .  S
C2909      N2913   1.157       .  T
C2910      N2914   1.157       .  T
C2911      N2916   1.157       .  T
C2912      N2915   1.157       .  T
C2921      C2922   1.410       .  A
C2921      C2926   1.400       .  A
C2921      C2935   1.443       .  S
C2922      C2927   1.488       .  S
C2922      C2923   1.403       .  A
C2923      C2924   1.403       .  A
C2923      H2942   1.083       .  S
C2924      C2925   1.416       .  A
C2924      C2936   1.444       .  S
C2925      C2926   1.406       .  A
C2926      H2941   1.084       .  S
C2927      C2928   1.402       .  A
C2927      C2932   1.409       .  A
C2928      C2929   1.403       .  A
C2928      H2943   1.085       .  S
C2929      C2930   1.418       .  A
C2929      C2933   1.444       .  S
C2930      C2931   1.408       .  A
C2931      C2932   1.402       .  A
C2931      H2944   1.085       .  S
C2932      C2934   1.444       .  S
C2933      N2937   1.157   1_556  T
C2934      N2938   1.157       .  T
C2935      N2940   1.157       .  T
C2936      N2939   1.157       .  T
C2945      C2946   1.408       .  A
C2945      C2959   1.444       .  S
C2946      C2951   1.476       .  S
C2946      C2947   1.398       .  A
C2947      C2948   1.396   1_556  A
C2947      H2966   1.085       .  S
C2948      C2960   1.445       .  S
C2949      C2950   1.405       .  A
C2950      H2965   1.084       .  S
C2951      C2952   1.399       .  A
C2951      C2956   1.411       .  A
C2952      C2953   1.396       .  A
C2952      H2967   1.087       .  S
C2953      C2954   1.413       .  A
C2953      C2957   1.445       .  S
C2954      C2955   1.401       .  A
C2955      C2956   1.399       .  A
C2955      H2968   1.087       .  S
C2956      C2958   1.444   1_556  S
C2957      N2961   1.157       .  T
C2958      N2962   1.157       .  T
C2960      N2963   1.157       .  T
C2969      C2970   1.412       .  A
C2969      C2974   1.404       .  A
C2969      C2983   1.443       .  S
C2970      C2975   1.484       .  S
C2970      C2971   1.401       .  A
C2971      C2972   1.395       .  A
C2971      H2990   1.087       .  S
C2972      C2973   1.412       .  A
C2972      C2984   1.445       .  S
C2973      C2974   1.404       .  A
C2974      H2989   1.086       .  S
C2975      C2976   1.399       .  A
C2975      C2980   1.411       .  A
C2976      C2977   1.399       .  A
C2976      H2991   1.083       .  S
C2977      C2978   1.420       .  A
C2977      C2981   1.445       .  S
C2978      C2979   1.405       .  A
C2979      C2980   1.403       .  A
C2979      H2992   1.083       .  S
C2980      C2982   1.444       .  S
C2981      N2985   1.157       .  T
C2982      N2986   1.157       .  T
C2983      N2988   1.157       .  T
C2984      N2987   1.157       .  T
C2993      C2994   1.409       .  A
C2993      C2998   1.401       .  A
C2994      C2999   1.485       .  S
C2994      C2995   1.402       .  A
C2995      C2996   1.401       .  A
C2995      H3014   1.085       .  S
C2996      C2997   1.415       .  A
C2996      C3008   1.444       .  S
C2997      C2998   1.408       .  A
C2998      H3013   1.084       .  S
C2999      C3000   1.401       .  A
C2999      C3004   1.410       .  A
C3000      C3001   1.400       .  A
C3000      H3015   1.085       .  S
C3001      C3002   1.417       .  A
C3001      C3005   1.444       .  S
C3002      C3003   1.406       .  A
C3003      C3004   1.401       .  A
C3003      H3016   1.085       .  S
C3004      C3006   1.444       .  S
C3005      N3009   1.157       .  T
C3006      N3010   1.157       .  T
C3007      N3012   1.157       .  T
C3008      N3011   1.157       .  T
C3017      C3018   1.410       .  A
C3017      C3022   1.400       .  A
C3017      C3031   1.445       .  S
C3018      C3023   1.480       .  S
C3018      C3019   1.400       .  A
C3019      C3020   1.401       .  A
C3019      H3038   1.083       .  S
C3020      C3021   1.415       .  A
C3020      C3032   1.443       .  S
C3021      C3022   1.405       .  A
C3022      H3037   1.083       .  S
C3023      C3024   1.401       .  A
C3023      C3028   1.406       .  A
C3024      C3025   1.401       .  A
C3024      H3039   1.084       .  S
C3025      C3026   1.417       .  A
C3025      C3029   1.444       .  S
C3026      C3027   1.407       .  A
C3027      C3028   1.399       .  A
C3027      H3040   1.084       .  S
C3028      C3030   1.443       .  S
C3029      N3033   1.157       .  T
C3030      N3034   1.157       .  T
C3031      N3036   1.157       .  T
C3032      N3035   1.157       .  T
C3041      C3042   1.409       .  A
C3041      C3046   1.398       .  A
C3041      C3055   1.445       .  S
C3042      C3047   1.474       .  S
C3042      C3043   1.398       .  A
C3043      C3044   1.399       .  A
C3043      H3062   1.086       .  S
C3044      C3045   1.414       .  A
C3044      C3056   1.444       .  S
C3045      C3046   1.403       .  A
C3046      H3061   1.086       .  S
C3047      C3048   1.398       .  A
C3047      C3052   1.410       .  A
C3048      C3049   1.397       .  A
C3048      H3063   1.087       .  S
C3049      C3050   1.415       .  A
C3049      C3053   1.445       .  S
C3050      C3051   1.401       .  A
C3051      C3052   1.399       .  A
C3051      H3064   1.088       .  S
C3052      C3054   1.444       .  S
C3053      N3057   1.157       .  T
C3054      N3058   1.157       .  T
C3055      N3060   1.157       .  T
C3056      N3059   1.157       .  T
C3065      C3066   1.410       .  A
C3065      C3070   1.397       .  A
C3065      C3079   1.444       .  S
C3066      C3067   1.401       .  A
C3067      C3068   1.400       .  A
C3067      H3086   1.088       .  S
C3068      C3069   1.411       .  A
C3068      C3080   1.444       .  S
C3069      C3070   1.402       .  A
C3070      H3085   1.088       .  S
C3071      C3076   1.405       .  A
C3072      H3087   1.087       .  S
C3073      C3074   1.415       .  A
C3074      C3075   1.409       .  A
C3075      C3076   1.397       .  A
C3075      H3088   1.086       .  S
C3076      C3078   1.444       .  S
C3077      N3081   1.157       .  T
C3078      N3082   1.157       .  T
C3079      N3084   1.157       .  T
C3080      N3083   1.157       .  T
C3089      C3090   1.407       .  A
C3089      C3094   1.398       .  A
C3089      C3103   1.444       .  S
C3090      C3095   1.483       .  S
C3090      C3091   1.403       .  A
C3091      C3092   1.404       .  A
C3091      H3110   1.085       .  S
C3092      C3093   1.416       .  A
C3092      C3104   1.444       .  S
C3093      C3094   1.407       .  A
C3094      H3109   1.085       .  S
C3095      C3096   1.402       .  A
C3095      C3100   1.410       .  A
C3096      C3097   1.401       .  A
C3096      H3111   1.084       .  S
C3097      C3098   1.415       .  A
C3097      C3101   1.443       .  S
C3098      C3099   1.405       .  A
C3099      C3100   1.400       .  A
C3099      H3112   1.084       .  S
C3100      C3102   1.444       .  S
C3101      N3105   1.157       .  T
C3102      N3106   1.157       .  T
C3103      N3108   1.157       .  T
C3104      N3107   1.157       .  T
C3113      C3114   1.408       .  A
C3113      C3118   1.396       .  A
C3113      C3127   1.444       .  S
C3115      H3134   1.082       .  S
C3116      C3117   1.414       .  A
C3116      C3128   1.445       .  S
C3117      C3118   1.401       .  A
C3118      H3133   1.084       .  S
C3119      C3120   1.398       .  A
C3119      C3124   1.409       .  A
C3120      C3121   1.398       .  A
C3120      H3135   1.084       .  S
C3121      C3122   1.420       .  A
C3121      C3125   1.446       .  S
C3122      C3123   1.404       .  A
C3123      C3124   1.402       .  A
C3123      H3136   1.084       .  S
C3124      C3126   1.443       .  S
C3125      N3129   1.158       .  T
C3126      N3130   1.157       .  T
C3127      N3132   1.157       .  T
C3137      C3138   1.411       .  A
C3137      C3142   1.397       .  A
C3137      C3151   1.444       .  S
C3138      C3143   1.475       .  S
C3138      C3139   1.399       .  A
C3139      C3140   1.395       .  A
C3139      H3158   1.085       .  S
C3140      C3141   1.413       .  A
C3140      C3152   1.444       .  S
C3141      C3142   1.402       .  A
C3142      H3157   1.086       .  S
C3143      C3144   1.400       .  A
C3143      C3148   1.406       .  A
C3144      C3145   1.398       .  A
C3144      H3159   1.087       .  S
C3145      C3146   1.415       .  A
C3145      C3149   1.444       .  S
C3146      C3147   1.408       .  A
C3147      C3148   1.397       .  A
C3147      H3160   1.086       .  S
C3148      C3150   1.445       .  S
C3149      N3153   1.157       .  T
C3150      N3154   1.157       .  T
C3151      N3156   1.157       .  T
C3152      N3155   1.157       .  T
C3161      C3162   1.411       .  A
C3161      C3166   1.398       .  A
C3161      C3175   1.445       .  S
C3162      C3167   1.490       .  S
C3162      C3163   1.406       .  A
C3163      C3164   1.401       .  A
C3163      H3182   1.082       .  S
C3164      C3165   1.413       .  A
C3164      C3176   1.444       .  S
C3165      C3166   1.406       .  A
C3166      H3181   1.083       .  S
C3167      C3168   1.408       .  A
C3167      C3172   1.412       .  A
C3168      C3169   1.405       .  A
C3168      H3183   1.082       .  S
C3169      C3170   1.409       .  A
C3169      C3173   1.442       .  S
C3170      C3171   1.404       .  A
C3171      C3172   1.395       .  A
C3171      H3184   1.083       .  S
C3172      C3174   1.445       .  S
C3173      N3177   1.157       .  T
C3174      N3178   1.157       .  T
C3175      N3180   1.157       .  T
C3176      N3179   1.157       .  T
C3185      C3186   1.407       .  A
C3185      C3190   1.395       .  A
C3185      C3199   1.445       .  S
C3186      C3191   1.476       .  S
C3186      C3187   1.401       .  A
C3187      C3188   1.400       .  A
C3187      H3206   1.083       .  S
C3188      C3189   1.415       .  A
C3188      C3200   1.444       .  S
C3189      C3190   1.407       .  A
C3190      H3205   1.082       .  S
C3191      C3192   1.402       .  A
C3191      C3196   1.408       .  A
C3192      C3193   1.400       .  A
C3192      H3207   1.084       .  S
C3193      C3194   1.412       .  A
C3193      C3197   1.443   1_556  S
C3194      C3195   1.405       .  A
C3195      C3196   1.395       .  A
C3195      H3208   1.084       .  S
C3196      C3198   1.445       .  S
C3197      N3201   1.157       .  T
C3198      N3202   1.157       .  T
C3199      N3204   1.157       .  T
C3200      N3203   1.157       .  T
C3209      C3210   1.413       .  A
C3209      C3214   1.403       .  A
C3209      C3223   1.443       .  S
C3210      C3215   1.488       .  S
C3210      C3211   1.401       .  A
C3211      C3212   1.399       .  A
C3211      H3230   1.085       .  S
C3212      C3213   1.417       .  A
C3212      C3224   1.445       .  S
C3213      C3214   1.403       .  A
C3214      H3229   1.085       .  S
C3215      C3216   1.402       .  A
C3215      C3220   1.411       .  A
C3216      C3217   1.402       .  A
C3216      H3231   1.083       .  S
C3217      C3218   1.418       .  A
C3217      C3221   1.444       .  S
C3218      C3219   1.405       .  A
C3219      C3220   1.402       .  A
C3219      H3232   1.082       .  S
C3220      C3222   1.444       .  S
C3221      N3225   1.157       .  T
C3222      N3226   1.157       .  T
C3223      N3228   1.157       .  T
C3224      N3227   1.158       .  T
C3233      C3234   1.410       .  A
C3233      C3238   1.398   1_556  A
C3233      C3247   1.444       .  S
C3234      C3239   1.479       .  S
C3235      C3236   1.398       .  A
C3235      H3254   1.086       .  S
C3236      C3237   1.420       .  A
C3236      C3248   1.445       .  S
C3238      H3253   1.085       .  S
C3239      C3240   1.400       .  A
C3239      C3244   1.411       .  A
C3240      C3241   1.393       .  A
C3240      H3255   1.087       .  S
C3241      C3242   1.411       .  A
C3241      C3245   1.444       .  S
C3242      C3243   1.403       .  A
C3243      C3244   1.402       .  A
C3243      H3256   1.087       .  S
C3244      C3246   1.443       .  S
C3245      N3249   1.157       .  T
C3246      N3250   1.157       .  T
C3247      N3252   1.157       .  T
C3248      N3251   1.157       .  T
C3257      C3258   1.414       .  A
C3257      C3262   1.400       .  A
C3258      C3263   1.494       .  S
C3258      C3259   1.407       .  A
C3259      C3260   1.401       .  A
C3259      H3278   1.083       .  S
C3260      C3261   1.409       .  A
C3260      C3272   1.443       .  S
C3261      C3262   1.405       .  A
C3262      H3277   1.084       .  S
C3263      C3268   1.415       .  A
C3264      C3265   1.405       .  A
C3264      H3279   1.081       .  S
C3265      C3266   1.410       .  A
C3265      C3269   1.443       .  S
C3266      C3267   1.402       .  A
C3267      H3280   1.082       .  S
C3268      C3270   1.445       .  S
C3269      N3273   1.157       .  T
C3270      N3274   1.157       .  T
C3271      N3276   1.157       .  T
C3272      N3275   1.157       .  T
C3281      C3282   1.410       .  A
C3281      C3286   1.401       .  A
C3281      C3295   1.444       .  S
C3282      C3287   1.486       .  S
C3282      C3283   1.402       .  A
C3283      C3284   1.398       .  A
C3283      H3302   1.083       .  S
C3284      C3285   1.415       .  A
C3284      C3296   1.444       .  S
C3285      C3286   1.408       .  A
C3286      H3301   1.083       .  S
C3287      C3288   1.405       .  A
C3287      C3292   1.412       .  A
C3288      C3289   1.401       .  A
C3288      H3303   1.083       .  S
C3289      C3290   1.413       .  A
C3289      C3293   1.444       .  S
C3290      C3291   1.403       .  A
C3291      C3292   1.397       .  A
C3291      H3304   1.083       .  S
C3292      C3294   1.445       .  S
C3293      N3297   1.157       .  T
C3294      N3298   1.157       .  T
C3295      N3300   1.157       .  T
C3296      N3299   1.157       .  T
C3305      C3306   1.406       .  A
C3305      C3310   1.400       .  A
C3305      C3319   1.444       .  S
C3306      C3311   1.482       .  S
C3306      C3307   1.402       .  A
C3307      C3308   1.400       .  A
C3307      H3326   1.084       .  S
C3308      C3309   1.415       .  A
C3308      C3320   1.444       .  S
C3309      C3310   1.409       .  A
C3310      H3325   1.084       .  S
C3311      C3312   1.403       .  A
C3311      C3316   1.408       .  A
C3312      C3313   1.404       .  A
C3312      H3327   1.084       .  S
C3313      C3314   1.417       .  A
C3313      C3317   1.445       .  S
C3314      C3315   1.404       .  A
C3315      C3316   1.396       .  A
C3315      H3328   1.084       .  S
C3316      C3318   1.444       .  S
C3317      N3321   1.158       .  T
C3318      N3322   1.157       .  T
C3319      N3324   1.157       .  T
C3320      N3323   1.157       .  T
C3329      C3330   1.415       .  A
C3329      C3334   1.402       .  A
C3330      C3331   1.401       .  A
C3331      C3332   1.400       .  A
C3331      H3350   1.084       .  S
C3332      C3333   1.417       .  A
C3332      C3344   1.445       .  S
C3333      C3334   1.402       .  A
C3334      H3349   1.084       .  S
C3335      C3336   1.401       .  A
C3335      C3340   1.413       .  A
C3336      C3337   1.395       .  A
C3337      C3338   1.413       .  A
C3337      C3341   1.445       .  S
C3338      C3339   1.405       .  A
C3339      C3340   1.404       .  A
C3339      H3352   1.086       .  S
C3340      C3342   1.444       .  S
C3341      N3345   1.157       .  T
C3342      N3346   1.157       .  T
C3343      N3348   1.157       .  T
C3344      N3347   1.157       .  T
C3353      C3354   1.413       .  A
C3353      C3358   1.400       .  A
C3353      C3367   1.444       .  S
C3354      C3359   1.488       .  S
C3354      C3355   1.403       .  A
C3355      C3356   1.401       .  A
C3355      H3374   1.084       .  S
C3356      C3357   1.416       .  A
C3356      C3368   1.445       .  S
C3357      C3358   1.403       .  A
C3358      H3373   1.085       .  S
C3359      C3360   1.401       .  A
C3359      C3364   1.413       .  A
C3360      C3361   1.398       .  A
C3360      H3375   1.084       .  S
C3361      C3362   1.417       .  A
C3361      C3365   1.445       .  S
C3362      C3363   1.404       .  A
C3363      C3364   1.403       .  A
C3363      H3376   1.084       .  S
C3364      C3366   1.444       .  S
C3365      N3369   1.157       .  T
C3366      N3370   1.157       .  T
C3367      N3372   1.157       .  T
C3368      N3371   1.157       .  T
C3377      C3378   1.412       .  A
C3377      C3382   1.400       .  A
C3377      C3391   1.444       .  S
C3378      C3383   1.482   1_655  S
C3378      C3379   1.398       .  A
C3379      C3380   1.397       .  A
C3379      H3398   1.085   1_655  S
C3380      C3381   1.420       .  A
C3380      C3392   1.445       .  S
C3381      C3382   1.405       .  A
C3382      H3397   1.084       .  S
C3383      C3384   1.405       .  A
C3383      C3388   1.412       .  A
C3384      C3385   1.401       .  A
C3384      H3399   1.084       .  S
C3385      C3386   1.410       .  A
C3386      C3387   1.401       .  A
C3387      C3388   1.395       .  A
C3387      H3400   1.086       .  S
C3388      C3390   1.445       .  S
C3389      N3393   1.157   1_554  T
C3390      N3394   1.157       .  T
C3391      N3396   1.157       .  T
C3392      N3395   1.157       .  T
C3401      C3402   1.413   1_655  A
C3401      C3406   1.401       .  A
C3401      C3415   1.444       .  S
C3402      C3407   1.484       .  S
C3402      C3403   1.400       .  A
C3403      C3404   1.398   1_455  A
C3403      H3422   1.085       .  S
C3404      C3405   1.415       .  A
C3404      C3416   1.446       .  S
C3405      C3406   1.402       .  A
C3406      H3421   1.086       .  S
C3407      C3408   1.404       .  A
C3407      C3412   1.407       .  A
C3408      C3409   1.403       .  A
C3408      H3423   1.084       .  S
C3409      C3410   1.415       .  A
C3409      C3413   1.443       .  S
C3410      C3411   1.409       .  A
C3411      C3412   1.398       .  A
C3411      H3424   1.083       .  S
C3412      C3414   1.444       .  S
C3413      N3417   1.157       .  T
C3414      N3418   1.157       .  T
C3415      N3420   1.157       .  T
C3416      N3419   1.158       .  T
C3425      C3426   1.409       .  A
C3425      C3430   1.400       .  A
C3425      C3439   1.444       .  S
C3426      C3431   1.482       .  S
C3426      C3427   1.402       .  A
C3427      C3428   1.398       .  A
C3427      H3446   1.084       .  S
C3428      C3429   1.413       .  A
C3428      C3440   1.444       .  S
C3429      C3430   1.406       .  A
C3430      H3445   1.083       .  S
C3431      C3432   1.402       .  A
C3431      C3436   1.408       .  A
C3432      C3433   1.400       .  A
C3432      H3447   1.086       .  S
C3433      C3434   1.416       .  A
C3433      C3437   1.444       .  S
C3434      C3435   1.408       .  A
C3435      C3436   1.398       .  A
C3435      H3448   1.085       .  S
C3436      C3438   1.445       .  S
C3437      N3441   1.157       .  T
C3438      N3442   1.157       .  T
C3439      N3444   1.157       .  T
C3440      N3443   1.157   1_556  T
C3449      C3450   1.407       .  A
C3449      C3454   1.401       .  A
C3449      C3463   1.444       .  S
C3450      C3455   1.480   1_554  S
C3450      C3451   1.402       .  A
C3451      H3470   1.084   1_554  S
C3452      C3453   1.411       .  A
C3452      C3464   1.443       .  S
C3455      C3456   1.401       .  A
C3455      C3460   1.409       .  A
C3456      C3457   1.402       .  A
C3456      H3471   1.085       .  S
C3457      C3458   1.414       .  A
C3457      C3461   1.443       .  S
C3458      C3459   1.404       .  A
C3459      C3460   1.395       .  A
C3459      H3472   1.086       .  S
C3460      C3462   1.445   1_556  S
C3461      N3465   1.157       .  T
C3463      N3468   1.157       .  T
C3464      N3467   1.157       .  T
C3473      C3474   1.410       .  A
C3473      C3478   1.397       .  A
C3473      C3487   1.444       .  S
C3474      C3479   1.477       .  S
C3474      C3475   1.402       .  A
C3475      C3476   1.397       .  A
C3475      H3494   1.082       .  S
C3476      C3477   1.411       .  A
C3476      C3488   1.445       .  S
C3477      C3478   1.401       .  A
C3478      H3493   1.083       .  S
C3479      C3480   1.403       .  A
C3479      C3484   1.407       .  A
C3480      C3481   1.400       .  A
C3480      H3495   1.084       .  S
C3481      C3482   1.412       .  A
C3481      C3485   1.443       .  S
C3482      C3483   1.407       .  A
C3483      C3484   1.397       .  A
C3483      H3496   1.081       .  S
C3484      C3486   1.445       .  S
C3485      N3489   1.157       .  T
C3486      N3490   1.157       .  T
C3487      N3492   1.157       .  T
C3488      N3491   1.157       .  T
C3497      C3498   1.412       .  A
C3497      C3502   1.400       .  A
C3497      C3511   1.445       .  S
C3498      C3503   1.485       .  S
C3498      C3499   1.400       .  A
C3499      C3500   1.399       .  A
C3499      H3518   1.088       .  S
C3500      C3501   1.418       .  A
C3500      C3512   1.444       .  S
C3501      C3502   1.405       .  A
C3502      H3517   1.086       .  S
C3503      C3504   1.401       .  A
C3503      C3508   1.413       .  A
C3504      C3505   1.401       .  A
C3504      H3519   1.084       .  S
C3505      C3506   1.417       .  A
C3505      C3509   1.444       .  S
C3506      C3507   1.403       .  A
C3507      C3508   1.399       .  A
C3507      H3520   1.084       .  S
C3508      C3510   1.444       .  S
C3509      N3513   1.157       .  T
C3510      N3514   1.157       .  T
C3511      N3516   1.157       .  T
C3512      N3515   1.157       .  T
C3521      C3522   1.408       .  A
C3521      C3526   1.395       .  A
C3521      C3535   1.444       .  S
C3522      C3527   1.479       .  S
C3522      C3523   1.405       .  A
C3523      C3524   1.400       .  A
C3523      H3542   1.083       .  S
C3524      C3525   1.409       .  A
C3524      C3536   1.444       .  S
C3525      C3526   1.404       .  A
C3526      H3541   1.085       .  S
C3527      C3528   1.403       .  A
C3527      C3532   1.408       .  A
C3528      C3529   1.400       .  A
C3528      H3543   1.085       .  S
C3529      C3530   1.411       .  A
C3529      C3533   1.443       .  S
C3530      C3531   1.406       .  A
C3531      C3532   1.396       .  A
C3531      H3544   1.085       .  S
C3532      C3534   1.445       .  S
C3533      N3537   1.157       .  T
C3534      N3538   1.157       .  T
C3535      N3540   1.157       .  T
C3545      C3546   1.406       .  A
C3545      C3550   1.395       .  A
C3545      C3559   1.445       .  S
C3546      C3551   1.475       .  S
C3546      C3547   1.403       .  A
C3547      C3548   1.401       .  A
C3547      H3566   1.088       .  S
C3548      C3549   1.409       .  A
C3548      C3560   1.443       .  S
C3549      C3550   1.404       .  A
C3550      H3565   1.086       .  S
C3551      C3552   1.400       .  A
C3551      C3556   1.405       .  A
C3552      C3553   1.397       .  A
C3552      H3567   1.085       .  S
C3553      C3554   1.415       .  A
C3553      C3557   1.444       .  S
C3554      C3555   1.409       .  A
C3555      C3556   1.398       .  A
C3555      H3568   1.085       .  S
C3556      C3558   1.444       .  S
C3557      N3561   1.157       .  T
C3558      N3562   1.157       .  T
C3559      N3564   1.157       .  T
C3560      N3563   1.157       .  T
C3569      C3570   1.404       .  A
C3569      C3574   1.396       .  A
C3569      C3583   1.444       .  S
C3570      C3575   1.471       .  S
C3570      C3571   1.400       .  A
C3571      C3572   1.398       .  A
C3571      H3590   1.083       .  S
C3572      C3573   1.416       .  A
C3572      C3584   1.444       .  S
C3573      C3574   1.408       .  A
C3574      H3589   1.083       .  S
C3575      C3576   1.399       .  A
C3575      C3580   1.405       .  A
C3576      C3577   1.397       .  A
C3576      H3591   1.086       .  S
C3577      C3578   1.415       .  A
C3577      C3581   1.444       .  S
C3578      C3579   1.407       .  A
C3579      C3580   1.398       .  A
C3579      H3592   1.085       .  S
C3581      N3585   1.157       .  T
C3582      N3586   1.157   1_554  T
C3583      N3588   1.157       .  T
C3584      N3587   1.157       .  T
C3593      C3594   1.415       .  A
C3593      C3598   1.404       .  A
C3593      C3607   1.444       .  S
C3594      C3599   1.493       .  S
C3594      C3595   1.402       .  A
C3595      C3596   1.399       .  A
C3595      H3614   1.089       .  S
C3596      C3597   1.415       .  A
C3596      C3608   1.445       .  S
C3597      C3598   1.405       .  A
C3598      H3613   1.087       .  S
C3599      C3600   1.407       .  A
C3599      C3604   1.411       .  A
C3600      C3601   1.402       .  A
C3600      H3615   1.087       .  S
C3601      C3602   1.412       .  A
C3601      C3605   1.443       .  S
C3602      C3603   1.407       .  A
C3603      C3604   1.401       .  A
C3603      H3616   1.087       .  S
C3604      C3606   1.444       .  S
C3605      N3609   1.157       .  T
C3606      N3610   1.157       .  T
C3607      N3612   1.157       .  T
C3608      N3611   1.157       .  T
C3617      C3618   1.410       .  A
C3617      C3622   1.400       .  A
C3617      C3631   1.443       .  S
C3618      C3623   1.482       .  S
C3618      C3619   1.400       .  A
C3619      C3620   1.400       .  A
C3619      H3638   1.087       .  S
C3620      C3621   1.418       .  A
C3620      C3632   1.445       .  S
C3621      C3622   1.403       .  A
C3622      H3637   1.088       .  S
C3623      C3624   1.400       .  A
C3623      C3628   1.409       .  A
C3625      C3626   1.415       .  A
C3625      C3629   1.444       .  S
C3627      C3628   1.402   1_554  A
C3627      H3640   1.086       .  S
C3628      C3630   1.444       .  S
C3629      N3633   1.157       .  T
C3630      N3634   1.157       .  T
C3632      N3635   1.158       .  T
C3641      C3642   1.413       .  A
C3641      C3646   1.398       .  A
C3641      C3655   1.444       .  S
C3642      C3647   1.486       .  S
C3642      C3643   1.401       .  A
C3643      C3644   1.399       .  A
C3643      H3662   1.087       .  S
C3644      C3645   1.419       .  A
C3644      C3656   1.445       .  S
C3645      C3646   1.402       .  A
C3646      H3661   1.088       .  S
C3647      C3648   1.403   1_455  A
C3647      C3652   1.413   1_455  A
C3648      C3649   1.398       .  A
C3648      H3663   1.086       .  S
C3649      C3650   1.414       .  A
C3649      C3653   1.445       .  S
C3650      C3651   1.403       .  A
C3651      C3652   1.399       .  A
C3651      H3664   1.086       .  S
C3652      C3654   1.444   1_655  S
C3654      N3658   1.157       .  T
C3655      N3660   1.157       .  T
C3656      N3659   1.158       .  T
C3665      C3666   1.411       .  A
C3665      C3670   1.403   1_455  A
C3665      C3679   1.444       .  S
C3666      C3671   1.483       .  S
C3666      C3667   1.401       .  A
C3667      C3668   1.397   1_455  A
C3667      H3686   1.081       .  S
C3668      C3669   1.415       .  A
C3668      C3680   1.445       .  S
C3669      C3670   1.405       .  A
C3670      H3685   1.081       .  S
C3671      C3672   1.399       .  A
C3671      C3676   1.412       .  A
C3672      C3673   1.396       .  A
C3672      H3687   1.083       .  S
C3673      C3674   1.418       .  A
C3673      C3677   1.446       .  S
C3674      C3675   1.403       .  A
C3675      C3676   1.403       .  A
C3675      H3688   1.083       .  S
C3676      C3678   1.444       .  S
C3677      N3681   1.157       .  T
C3678      N3682   1.157       .  T
C3679      N3684   1.157       .  T
C3680      N3683   1.157       .  T
C3689      C3690   1.411       .  A
C3689      C3694   1.403       .  A
C3689      C3703   1.445       .  S
C3690      C3695   1.494       .  S
C3690      C3691   1.405       .  A
C3691      C3692   1.401       .  A
C3691      H3710   1.081       .  S
C3692      C3693   1.415       .  A
C3693      C3694   1.409       .  A
C3694      H3709   1.083       .  S
C3695      C3696   1.406       .  A
C3695      C3700   1.412       .  A
C3696      C3697   1.401       .  A
C3696      H3711   1.082       .  S
C3697      C3698   1.413       .  A
C3697      C3701   1.444       .  S
C3698      C3699   1.406       .  A
C3699      C3700   1.403       .  A
C3699      H3712   1.083       .  S
C3700      C3702   1.444       .  S
C3701      N3705   1.157       .  T
C3702      N3706   1.157       .  T
C3703      N3708   1.157       .  T
C3704      N3707   1.157       .  T
C3713      C3714   1.409       .  A
C3713      C3718   1.403       .  A
C3713      C3727   1.443       .  S
C3714      C3719   1.490       .  S
C3714      C3715   1.402       .  A
C3715      C3716   1.405       .  A
C3715      H3734   1.086       .  S
C3716      C3717   1.418       .  A
C3716      C3728   1.444       .  S
C3717      C3718   1.407       .  A
C3718      H3733   1.085       .  S
C3719      C3720   1.403       .  A
C3719      C3724   1.408       .  A
C3720      C3721   1.406       .  A
C3720      H3735   1.084       .  S
C3721      C3722   1.418       .  A
C3721      C3725   1.443       .  S
C3722      C3723   1.409       .  A
C3723      C3724   1.403       .  A
C3723      H3736   1.084       .  S
C3724      C3726   1.444       .  S
C3725      N3729   1.157       .  T
C3726      N3730   1.157       .  T
C3727      N3732   1.157       .  T
C3728      N3731   1.157       .  T
C3737      C3738   1.409       .  A
C3737      C3742   1.393       .  A
C3737      C3751   1.445       .  S
C3738      C3743   1.483       .  S
C3738      C3739   1.406       .  A
C3739      C3740   1.400       .  A
C3739      H3758   1.086       .  S
C3740      C3741   1.412       .  A
C3740      C3752   1.444       .  S
C3741      C3742   1.405       .  A
C3742      H3757   1.087       .  S
C3743      C3744   1.404       .  A
C3743      C3748   1.409       .  A
C3744      C3745   1.396       .  A
C3744      H3759   1.085       .  S
C3745      C3746   1.413       .  A
C3745      C3749   1.445       .  S
C3746      C3747   1.406       .  A
C3747      C3748   1.398       .  A
C3747      H3760   1.086       .  S
C3748      C3750   1.444       .  S
C3749      N3753   1.157       .  T
C3750      N3754   1.157       .  T
C3751      N3756   1.157       .  T
C3752      N3755   1.157       .  T
C3761      C3762   1.410       .  A
C3761      C3766   1.400       .  A
C3761      C3775   1.444       .  S
C3762      C3767   1.478       .  S
C3762      C3763   1.398       .  A
C3763      C3764   1.397       .  A
C3763      H3782   1.086       .  S
C3764      C3765   1.418       .  A
C3765      C3766   1.404       .  A
C3766      H3781   1.086       .  S
C3767      C3768   1.400       .  A
C3767      C3772   1.408       .  A
C3768      C3769   1.397       .  A
C3768      H3783   1.086       .  S
C3769      C3770   1.413       .  A
C3769      C3773   1.444       .  S
C3770      C3771   1.406       .  A
C3771      C3772   1.401       .  A
C3771      H3784   1.084       .  S
C3772      C3774   1.444       .  S
C3773      N3777   1.157       .  T
C3774      N3778   1.157       .  T
C3775      N3780   1.157       .  T
C3776      N3779   1.157       .  T
C3785      C3786   1.410       .  A
C3785      C3790   1.396       .  A
C3785      C3799   1.444       .  S
C3786      C3791   1.479       .  S
C3786      C3787   1.401       .  A
C3787      C3788   1.400       .  A
C3787      H3806   1.084       .  S
C3788      C3789   1.415       .  A
C3788      C3800   1.444       .  S
C3789      C3790   1.403       .  A
C3790      H3805   1.084       .  S
C3791      C3792   1.398       .  A
C3791      C3796   1.411       .  A
C3792      C3793   1.398       .  A
C3792      H3807   1.088       .  S
C3793      C3794   1.415       .  A
C3793      C3797   1.443       .  S
C3794      C3795   1.405       .  A
C3795      C3796   1.401       .  A
C3795      H3808   1.087       .  S
C3796      C3798   1.446       .  S
C3797      N3801   1.157       .  T
C3798      N3802   1.158       .  T
C3799      N3804   1.157       .  T
C3800      N3803   1.157       .  T
C3809      C3810   1.408       .  A
C3809      C3814   1.399       .  A
C3809      C3823   1.445       .  S
C3810      C3815   1.487       .  S
C3810      C3811   1.405       .  A
C3811      C3812   1.403       .  A
C3811      H3830   1.082       .  S
C3812      C3813   1.415       .  A
C3812      C3824   1.443       .  S
C3813      C3814   1.410       .  A
C3814      H3829   1.082       .  S
C3815      C3816   1.406       .  A
C3816      H3831   1.089       .  S
C3817      C3818   1.411       .  A
C3818      C3819   1.406       .  A
C3819      C3820   1.396       .  A
C3819      H3832   1.089       .  S
C3820      C3822   1.444       .  S
C3821      N3825   1.157       .  T
C3822      N3826   1.157       .  T
C3823      N3828   1.157       .  T
C3824      N3827   1.157       .  T
C3833      C3834   1.411       .  A
C3833      C3838   1.402       .  A
C3833      C3847   1.444       .  S
C3834      C3839   1.478       .  S
C3834      C3835   1.398       .  A
C3835      C3836   1.395       .  A
C3835      H3854   1.082       .  S
C3836      C3837   1.416       .  A
C3836      C3848   1.445       .  S
C3837      C3838   1.404       .  A
C3838      H3853   1.081       .  S
C3839      C3840   1.399       .  A
C3839      C3844   1.410       .  A
C3840      C3841   1.396       .  A
C3840      H3855   1.084       .  S
C3841      C3842   1.415       .  A
C3841      C3845   1.445       .  S
C3842      C3843   1.404       .  A
C3843      C3844   1.400       .  A
C3843      H3856   1.084       .  S
C3844      C3846   1.444       .  S
C3845      N3849   1.157       .  T
C3846      N3850   1.157       .  T
C3847      N3852   1.157       .  T
C3848      N3851   1.157       .  T
C3857      C3862   1.403       .  A
C3857      C3871   1.444       .  S
C3858      C3863   1.493       .  S
C3858      C3859   1.403       .  A
C3859      H3878   1.086       .  S
C3860      C3861   1.415       .  A
C3861      C3862   1.405       .  A
C3862      H3877   1.085       .  S
C3863      C3864   1.403       .  A
C3863      C3868   1.414       .  A
C3864      C3865   1.403       .  A
C3864      H3879   1.084       .  S
C3865      C3866   1.417       .  A
C3865      C3869   1.444       .  S
C3866      C3867   1.405       .  A
C3867      C3868   1.402       .  A
C3867      H3880   1.084       .  S
C3868      C3870   1.444       .  S
C3869      N3873   1.157       .  T
C3870      N3874   1.157       .  T
C3871      N3876   1.157       .  T
C3872      N3875   1.157       .  T
C3881      C3882   1.407       .  A
C3881      C3886   1.400       .  A
C3881      C3895   1.444       .  S
C3882      C3887   1.481       .  S
C3882      C3883   1.401       .  A
C3883      C3884   1.403       .  A
C3883      H3902   1.085       .  S
C3884      C3885   1.418       .  A
C3884      C3896   1.444       .  S
C3885      C3886   1.408       .  A
C3886      H3901   1.084       .  S
C3887      C3888   1.402       .  A
C3887      C3892   1.406       .  A
C3888      C3889   1.403       .  A
C3888      H3903   1.085       .  S
C3889      C3890   1.418       .  A
C3889      C3893   1.444       .  S
C3890      C3891   1.406       .  A
C3891      C3892   1.397       .  A
C3891      H3904   1.085       .  S
C3892      C3894   1.443       .  S
C3893      N3897   1.158       .  T
C3894      N3898   1.157       .  T
C3895      N3900   1.157       .  T
C3896      N3899   1.157       .  T
