geometry optimzed in LAMMPS
_audit_creation_date              2020-12-01 
_audit_creation_method            'lammps2cif' 
_symmetry_space_group_name_H-M    'P1' 
_symmetry_Int_Tables_number       1 
_symmetry_cell_setting            triclinic 
loop_ 
_symmetry_equiv_pos_as_xyz 
  x,y,z 
_cell_length_a                    38.85690171 
_cell_length_b                    39.02569250139216 
_cell_length_c                    59.19600568638696 
_cell_angle_alpha                 90.02415983583658 
_cell_angle_beta                  89.85440470564242 
_cell_angle_gamma                 90.10783720512981 
loop_ 
_atom_site_label 
_atom_site_type_symbol 
_atom_site_fract_x 
_atom_site_fract_y 
_atom_site_fract_z 
_atom_site_charge 
O1          O  0.39979669  0.20034592  0.12971504    -0.71300
O2          O  0.43348784  0.10826593  0.12664882    -0.71500
O3          O  0.40656589  0.15354404  0.09694002    -0.71400
O4          O  0.42770183  0.15531869  0.15943899    -0.71400
O5          O  0.37510775  0.14085615  0.16750703    -0.71300
O6          O  0.35727087  0.12957594  0.10416532    -0.71300
O7          O  0.38326555  0.09007849  0.13739461    -0.71300
O8          O  0.34817923  0.17992101  0.13420714    -0.71500
V9          V  0.41598324  0.15400807  0.12834646     1.35200
V10         V  0.36692368  0.13547306  0.13572129     1.35200
C11         C  0.36765401  0.20542351  0.13126690     0.78000
C12         C  0.41409122  0.08351765  0.13232899     0.78000
C13         C  0.37850865  0.14129899  0.08979405     0.77900
C14         C  0.40510248  0.14879249  0.17420807     0.77800
O15         O  0.49861380  0.71912146  0.12539616    -0.71300
O16         O  0.46931327  0.81243376  0.12219958    -0.71500
O17         O  0.49168057  0.76538782  0.09210433    -0.71400
O18         O  0.47534675  0.76609611  0.15493527    -0.71400
O19         O  0.52898419  0.77886257  0.16109622    -0.71300
O20         O  0.54284012  0.78640649  0.09722160    -0.71300
O21         O  0.52124084  0.82850366  0.13037674    -0.71300
O22         O  0.55149851  0.73691218  0.12805031    -0.71500
V23         V  0.48474269  0.76604010  0.12369151     1.35200
V24         V  0.53518483  0.78232783  0.12906804     1.35200
C25         C  0.53040632  0.71239087  0.12690384     0.78000
C26         C  0.49025151  0.83635756  0.12689759     0.78000
C27         C  0.51968153  0.77601292  0.08380422     0.77900
C28         C  0.49911878  0.77258331  0.16873547     0.77800
O29         O  0.40365453  0.20288192  0.88202885    -0.71300
O30         O  0.43468021  0.11009725  0.87997323    -0.71500
O31         O  0.42824129  0.16107909  0.84950087    -0.71400
O32         O  0.41062991  0.15195741  0.91232025    -0.71400
O33         O  0.35717258  0.13996504  0.90534706    -0.71300
O34         O  0.37818831  0.13919645  0.84206519    -0.71300
O35         O  0.38168007  0.09338515  0.87615542    -0.71300
O36         O  0.35308818  0.18568130  0.87124335    -0.71500
V37         V  0.41836741  0.15621802  0.88078297     1.35200
V38         V  0.36847655  0.13989026  0.87380587     1.35200
C39         C  0.37300739  0.20997692  0.87653684     0.78000
C40         C  0.41301772  0.08587077  0.87871815     0.78000
C41         C  0.40664348  0.15107074  0.83496412     0.77900
C42         C  0.38084460  0.14501979  0.91969594     0.77800
O43         O  0.48461668  0.71796459  0.87729579    -0.71300
O44         O  0.45506282  0.81137828  0.87663046    -0.71500
O45         O  0.45865914  0.76056589  0.84583200    -0.71400
O46         O  0.48006458  0.76881095  0.90787209    -0.71400
O47         O  0.53313903  0.78093054  0.89952699    -0.71300
O48         O  0.50891996  0.78078126  0.83694361    -0.71300
O49         O  0.50792837  0.82712720  0.87067891    -0.71300
O50         O  0.53502212  0.73466642  0.86572079    -0.71500
V51         V  0.47054690  0.76491843  0.87669108     1.35200
V52         V  0.52028468  0.78051633  0.86833743     1.35200
C53         C  0.51504488  0.71058399  0.87130780     0.78000
C54         C  0.47707242  0.83520730  0.87459180     0.78000
C55         C  0.47965838  0.76990404  0.83072085     0.77900
C56         C  0.51010229  0.77612575  0.91440507     0.77800
O57         O  0.39883245  0.71804397  0.62277525    -0.71300
O58         O  0.43547883  0.80879192  0.61748239    -0.71500
O59         O  0.42904703  0.76278930  0.65099004    -0.71400
O60         O  0.40581946  0.76339170  0.58910066    -0.71400
O61         O  0.35482037  0.78263840  0.59710286    -0.71300
O62         O  0.38024689  0.78615342  0.65957848    -0.71300
O63         O  0.38449685  0.82938885  0.62397691    -0.71300
O64         O  0.34973524  0.73987514  0.63278899    -0.71500
V65         V  0.41635022  0.76372597  0.62023497     1.35200
V66         V  0.36827447  0.78411549  0.62820650     1.35200
C67         C  0.36800316  0.71371940  0.62918956     0.78000
C68         C  0.41583128  0.83452346  0.61948132     0.78000
C69         C  0.40898907  0.77420833  0.66597891     0.77900
C70         C  0.37634074  0.77236222  0.58246489     0.77800
O71         O  0.49745495  0.20071447  0.62836446    -0.71300
O72         O  0.46661770  0.10830520  0.62014191    -0.71500
O73         O  0.46554265  0.15369676  0.65445784    -0.71400
O74         O  0.49767887  0.15575957  0.59404782    -0.71400
O75         O  0.54661131  0.13410477  0.60440995    -0.71300
O76         O  0.51570425  0.13730463  0.66600816    -0.71300
O77         O  0.51579890  0.09019914  0.63265127    -0.71300
O78         O  0.54781557  0.18124189  0.63755019    -0.71500
V79         V  0.48275003  0.15423877  0.62449840     1.35200
V80         V  0.53051507  0.13614366  0.63503430     1.35200
C81         C  0.52849333  0.20652946  0.63368105     0.78000
C82         C  0.48640771  0.08349328  0.62481351     0.78000
C83         C  0.48484738  0.14547637  0.67068778     0.77900
C84         C  0.52720190  0.14486798  0.58876626     0.77800
O85         O  0.40527975  0.71497717  0.37790089    -0.71300
O86         O  0.45033018  0.80246102  0.37827518    -0.71500
O87         O  0.41611826  0.76443555  0.40863077    -0.71400
O88         O  0.44092496  0.75339349  0.34730323    -0.71400
O89         O  0.39272973  0.77648560  0.33684679    -0.71300
O90         O  0.36865831  0.78973681  0.39894542    -0.71300
O91         O  0.40263339  0.82596098  0.36709549    -0.71300
O92         O  0.35780599  0.74038410  0.36850620    -0.71500
V93         V  0.42721673  0.75913035  0.37777270     1.35200
V94         V  0.38137120  0.78255868  0.36801917     1.35200
C95         C  0.37320633  0.71323869  0.37404174     0.78000
C96         C  0.43389014  0.82897127  0.37235627     0.78000
C97         C  0.38869715  0.77940323  0.41436381     0.77900
C98         C  0.42191429  0.76433000  0.33163319     0.77800
O99         O  0.48422940  0.19635342  0.38812409    -0.71300
O100        O  0.46588070  0.10055305  0.38212309    -0.71500
O101        O  0.48783983  0.14155788  0.41555069    -0.71400
O102        O  0.46139195  0.15474494  0.35436263    -0.71400
O103        O  0.51380776  0.14485650  0.34345169    -0.71300
O104        O  0.54113841  0.13537900  0.40520333    -0.71300
O105        O  0.51915372  0.09239336  0.37259565    -0.71300
O106        O  0.53635168  0.18747786  0.37603492    -0.71500
V107        V  0.47582384  0.14825236  0.38478878     1.35200
V108        V  0.52655078  0.14019844  0.37449951     1.35200
C109        C  0.51384033  0.20790348  0.38334810     0.78000
C110        C  0.48966633  0.08008083  0.37646445     0.78000
C111        C  0.51889751  0.13649674  0.42087951     0.77900
C112        C  0.48276902  0.15112863  0.33837740     0.77800
O113        O  0.19081692  0.41927085  0.13356417    -0.71300
O114        O  0.09830565  0.45286619  0.13323666    -0.71500
O115        O  0.14770916  0.44735621  0.16458273    -0.71400
O116        O  0.14094578  0.42630652  0.10243474    -0.71400
O117        O  0.12675821  0.37381838  0.11032903    -0.71300
O118        O  0.12436487  0.39861624  0.17314850    -0.71300
O119        O  0.08020937  0.40071207  0.13833667    -0.71300
O120        O  0.17146119  0.37011710  0.14525979    -0.71500
V121        V  0.14427461  0.43548743  0.13366491     1.35200
V122        V  0.12621632  0.38670248  0.14167939     1.35200
C123        C  0.19667283  0.38867492  0.13965388     0.78000
C124        C  0.07353768  0.43180821  0.13478663     0.78000
C125        C  0.13526488  0.42778950  0.17950080     0.77900
C126        C  0.13213813  0.39693259  0.09564089     0.77800
O127        O  0.70542007  0.50381630  0.13950337    -0.71300
O128        O  0.79821780  0.47239637  0.13581547    -0.71500
O129        O  0.75036522  0.47608856  0.16876025    -0.71400
O130        O  0.75299855  0.49941872  0.10670246    -0.71400
O131        O  0.76764772  0.55148838  0.11507703    -0.71300
O132        O  0.77231526  0.52549790  0.17741652    -0.71300
O133        O  0.81583246  0.52442614  0.14189011    -0.71300
O134        O  0.72428307  0.55341637  0.15065744    -0.71500
V135        V  0.75209609  0.48886144  0.13789545     1.35200
V136        V  0.76966075  0.53774694  0.14613874     1.35200
C137        C  0.69921409  0.53408451  0.14603771     0.78000
C138        C  0.82279712  0.49362084  0.13740840     0.78000
C139        C  0.76134659  0.49639279  0.18374838     0.77900
C140        C  0.76028513  0.52938165  0.10011904     0.77800
O141        O  0.19136811  0.41672780  0.88693861    -0.71300
O142        O  0.09962322  0.45224087  0.88804167    -0.71500
O143        O  0.14280985  0.42501541  0.91871259    -0.71400
O144        O  0.14850435  0.44467337  0.85620495    -0.71400
O145        O  0.12998426  0.39363983  0.84822219    -0.71300
O146        O  0.12049510  0.37521317  0.91148223    -0.71300
O147        O  0.08020916  0.40191134  0.87908323    -0.71300
O148        O  0.17025857  0.36600876  0.88074771    -0.71500
V149        V  0.14517172  0.43371976  0.88729635     1.35200
V150        V  0.12570021  0.38516622  0.87997909     1.35200
C151        C  0.19605903  0.38482002  0.88455144     0.78000
C152        C  0.07427010  0.43299154  0.88337738     0.78000
C153        C  0.13068862  0.39698951  0.92590237     0.77900
C154        C  0.14024583  0.42278155  0.84145979     0.77800
O155        O  0.70914657  0.52126847  0.89056693    -0.71300
O156        O  0.80302540  0.49300349  0.89221741    -0.71500
O157        O  0.75673827  0.51573574  0.92293010    -0.71400
O158        O  0.75461048  0.49816060  0.86012873    -0.71400
O159        O  0.76902740  0.55085273  0.85314137    -0.71300
O160        O  0.77583543  0.56727775  0.91679200    -0.71300
O161        O  0.81893803  0.54483636  0.88417179    -0.71300
O162        O  0.72618135  0.57386239  0.88581729    -0.71500
V163        V  0.75632558  0.50803445  0.89136330     1.35200
V164        V  0.77220465  0.55821731  0.88508610     1.35200
C165        C  0.70189331  0.55267229  0.88840181     0.78000
C166        C  0.82704822  0.51405572  0.88787579     0.78000
C167        C  0.76603550  0.54446825  0.93061874     0.77900
C168        C  0.76085695  0.52137763  0.84583971     0.77800
O169        O  0.69370208  0.42812304  0.63892960    -0.71300
O170        O  0.78702716  0.45855585  0.63475240    -0.71500
O171        O  0.74197740  0.42876131  0.60666222    -0.71400
O172        O  0.73878329  0.45896703  0.66720790    -0.71400
O173        O  0.75756268  0.40974801  0.67863086    -0.71300
O174        O  0.75854562  0.37823884  0.61718147    -0.71300
O175        O  0.80405757  0.40809870  0.64523411    -0.71300
O176        O  0.71185884  0.37887904  0.65112153    -0.71500
V177        V  0.74067130  0.44261600  0.63714042     1.35200
V178        V  0.75758068  0.39465370  0.64783538     1.35200
C179        C  0.68711185  0.39797987  0.64560394     0.78000
C180        C  0.81146725  0.43827117  0.63931136     0.78000
C181        C  0.75069056  0.39867105  0.60132759     0.77900
C182        C  0.74843104  0.44016789  0.68331969     0.77800
O183        O  0.18169649  0.50846074  0.63104943    -0.71300
O184        O  0.08772585  0.48011618  0.63282524    -0.71500
O185        O  0.12972679  0.50584708  0.60122605    -0.71400
O186        O  0.13932140  0.48186688  0.66283752    -0.71400
O187        O  0.12318540  0.53278604  0.67283327    -0.71300
O188        O  0.11530806  0.55770777  0.61051277    -0.71300
O189        O  0.07268534  0.53170795  0.64199962    -0.71300
O190        O  0.16583012  0.55963426  0.64116188    -0.71500
V191        V  0.13440159  0.49508403  0.63221977     1.35200
V192        V  0.11964258  0.54446817  0.64151859     1.35200
C193        C  0.18941790  0.53930284  0.63529638     0.78000
C194        C  0.06405585  0.50127421  0.63742837     0.78000
C195        C  0.12052948  0.53551173  0.59526015     0.77900
C196        C  0.13200509  0.50270212  0.67846931     0.77800
O197        O  0.69889962  0.40804429  0.39375087    -0.71300
O198        O  0.78778765  0.44988833  0.39360190    -0.71500
O199        O  0.73929871  0.43845320  0.36234345    -0.71400
O200        O  0.74790683  0.42018394  0.42501882    -0.71400
O201        O  0.76722405  0.36918206  0.41767317    -0.71300
O202        O  0.76604184  0.39114730  0.35468862    -0.71300
O203        O  0.81075585  0.39963930  0.38885867    -0.71300
O204        O  0.72241982  0.36007509  0.38358267    -0.71500
V205        V  0.74378187  0.42818240  0.39354360     1.35200
V206        V  0.76609102  0.38091566  0.38629717     1.35200
C207        C  0.69555944  0.37686927  0.38815748     0.78000
C208        C  0.81440349  0.43143523  0.39189283     0.78000
C209        C  0.75239287  0.41868210  0.34774111     0.77900
C210        C  0.75920223  0.39179567  0.43209644     0.77800
O211        O  0.18092385  0.51083191  0.38857502    -0.71300
O212        O  0.08630075  0.48392881  0.39170295    -0.71500
O213        O  0.13502446  0.48418455  0.35925436    -0.71400
O214        O  0.13265669  0.50964225  0.42092867    -0.71400
O215        O  0.11833591  0.56159777  0.41186568    -0.71300
O216        O  0.11770545  0.53485387  0.34952060    -0.71300
O217        O  0.07139328  0.53591714  0.38333057    -0.71300
O218        O  0.16466675  0.56152454  0.37781469    -0.71500
V219        V  0.13337372  0.49810505  0.38990936     1.35200
V220        V  0.11836960  0.54748281  0.38081316     1.35200
C221        C  0.18863771  0.54098272  0.38246693     0.78000
C222        C  0.06268829  0.50575945  0.38839093     0.78000
C223        C  0.12677889  0.50485492  0.34378353     0.77900
C224        C  0.12570120  0.53985236  0.42701654     0.77800
C225        C  0.89329024  0.48365111  0.37774425    -0.01500
C226        C  0.91822475  0.46841380  0.39189042     0.07100
C227        C  0.90790782  0.44318772  0.40737302    -0.07500
C228        C  0.87389656  0.43160524  0.40803494     0.04500
C229        C  0.84923668  0.44604966  0.39344935    -0.14700
C230        C  0.85894550  0.47262654  0.37882284    -0.08000
C231        C  0.95529059  0.47777897  0.39068943     0.05500
C232        C  0.96522375  0.51163999  0.39509407    -0.09200
C233        C  0.99994155  0.52124408  0.39470661     0.00500
C234        C  0.02568485  0.49650589  0.38997773     0.00300
C235        C  0.01566284  0.46249580  0.38588528    -0.12700
C236        C  0.98086688  0.45305751  0.38603557     0.00800
C237        C  0.00821487  0.55649646  0.39986396     0.40100
C238        C  0.97195436  0.41802942  0.38072732     0.36700
C239        C  0.90260705  0.50916413  0.36115059     0.36500
C240        C  0.86489536  0.40481085  0.42382528     0.37200
N241        N  0.01473787  0.58476400  0.40398255    -0.43600
N242        N  0.96467514  0.38998405  0.37651087    -0.44000
N243        N  0.85766136  0.38330305  0.43643435    -0.41400
N244        N  0.91001092  0.52955945  0.34779944    -0.42800
H245        H  0.84006631  0.48356136  0.36745771     0.13300
H246        H  0.92672977  0.43196702  0.41865663     0.09800
H247        H  0.94574243  0.53058934  0.39909119     0.10900
H248        H  0.03499513  0.44334585  0.38202382     0.16700
C249        C  0.12840252  0.58013242  0.53845836    -0.01500
C250        C  0.11567548  0.55472277  0.52370921     0.07100
C251        C  0.10177885  0.52455915  0.53275887    -0.07500
C252        C  0.10188269  0.51861943  0.55605577     0.04500
C253        C  0.11602841  0.54328623  0.57090167    -0.14700
C254        C  0.12817711  0.57443186  0.56194020    -0.08000
C255        C  0.12035848  0.55653834  0.49881731     0.05500
C256        C  0.14821603  0.53886038  0.48937445    -0.09200
C257        C  0.15127745  0.53479653  0.46598267     0.00500
C258        C  0.12603381  0.54862003  0.45143159     0.00300
C259        C  0.09915824  0.56811979  0.46082376    -0.12700
C260        C  0.09603621  0.57194444  0.48439268     0.00800
C261        C  0.18059275  0.51612906  0.45739214     0.40100
C262        C  0.06700955  0.59043848  0.49346921     0.36700
C263        C  0.14323933  0.61138392  0.52975645     0.36500
C264        C  0.08745526  0.48680796  0.56426750     0.37200
N265        N  0.20414531  0.50117598  0.45060921    -0.43600
N266        N  0.04374883  0.60529661  0.50076053    -0.44000
N267        N  0.07596602  0.46132929  0.57088969    -0.41400
N268        N  0.15517255  0.63639372  0.52271204    -0.42800
H269        H  0.13907991  0.59354220  0.57315074     0.13300
H270        H  0.09190489  0.50500268  0.52145477     0.09800
H271        H  0.16708465  0.52716791  0.50043098     0.10900
H272        H  0.07963116  0.57884184  0.44985103     0.16700
C273        C  0.73712413  0.40731019  0.53846421    -0.01500
C274        C  0.75751653  0.38088265  0.52928211     0.07100
C275        C  0.77340455  0.35757855  0.54408497    -0.07500
C276        C  0.77050630  0.36145827  0.56774175     0.04500
C277        C  0.75155157  0.38925161  0.57684706    -0.14700
C278        C  0.73430714  0.41116917  0.56181108    -0.08000
C279        C  0.76360883  0.37935643  0.50436524     0.05500
C280        C  0.77885463  0.40791749  0.49393630    -0.09200
C281        C  0.77843888  0.41178856  0.47045763     0.00500
C282        C  0.76358413  0.38615882  0.45671590     0.00300
C283        C  0.75107389  0.35608510  0.46695197    -0.12700
C284        C  0.75062762  0.35268882  0.49065308     0.00800
C285        C  0.79287092  0.44272940  0.46091358     0.40100
C286        C  0.73477027  0.32276336  0.50053083     0.36700
C287        C  0.71920269  0.43143098  0.52421290     0.36500
C288        C  0.78823989  0.33741529  0.58208189     0.37200
N289        N  0.80428069  0.46756903  0.45325773    -0.43600
N290        N  0.72204914  0.29878194  0.50848257    -0.44000
N291        N  0.80241636  0.31799734  0.59351574    -0.41400
N292        N  0.70508571  0.45087530  0.51277543    -0.42800
H293        H  0.71896017  0.43220137  0.56828063     0.13300
H294        H  0.78896166  0.33703931  0.53717317     0.09800
H295        H  0.78939252  0.42828134  0.50432776     0.10900
H296        H  0.73986142  0.33614043  0.45653236     0.16700
C297        C  0.90638680  0.44039740  0.65261731    -0.01500
C298        C  0.91868060  0.46653386  0.63827224     0.07100
C299        C  0.89545610  0.48366087  0.62407622    -0.07500
C300        C  0.86036123  0.47516539  0.62406191     0.04500
C301        C  0.84804428  0.44903604  0.63850392    -0.14700
C302        C  0.87145983  0.43189409  0.65259007    -0.08000
C303        C  0.95575335  0.47587820  0.63767762     0.05500
C304        C  0.97997639  0.45092447  0.63153185    -0.09200
C305        C  0.01528436  0.45821207  0.63146944     0.00500
C306        C  0.02700305  0.49141019  0.63740357     0.00300
C307        C  0.00245508  0.51641441  0.64333626    -0.12700
C308        C  0.96723477  0.50893676  0.64356605     0.00800
C309        C  0.03853317  0.43092884  0.62532403     0.40100
C310        C  0.94347002  0.53536614  0.65051186     0.36700
C311        C  0.92898044  0.42230351  0.66783264     0.36500
C312        C  0.83802333  0.49254182  0.60836557     0.37200
N313        N  0.05704916  0.40892923  0.62043878    -0.43600
N314        N  0.92444585  0.55656445  0.65605621    -0.44000
N315        N  0.82017354  0.50636946  0.59569338    -0.41400
N316        N  0.94708860  0.40771208  0.67996225    -0.42800
H317        H  0.86240804  0.41188596  0.66386077     0.13300
H318        H  0.90490299  0.50341133  0.61275147     0.09800
H319        H  0.97118751  0.42549407  0.62686020     0.10900
H320        H  0.01070005  0.54200791  0.64800492     0.16700
C321        C  0.73319877  0.47614912  0.79235194    -0.01500
C322        C  0.75474011  0.49090695  0.77582145     0.07100
C323        C  0.77681327  0.51786645  0.78201909    -0.07500
C324        C  0.77869519  0.52915073  0.80456551     0.04500
C325        C  0.75813252  0.51328139  0.82133404    -0.14700
C326        C  0.73520133  0.48717902  0.81479578    -0.08000
C327        C  0.75452998  0.47821217  0.75208442     0.05500
C328        C  0.74109921  0.49911978  0.73507003    -0.09200
C329        C  0.73858716  0.48741703  0.71271944     0.00500
C330        C  0.74978021  0.45382128  0.70694509     0.00300
C331        C  0.76375714  0.43320796  0.72412382    -0.12700
C332        C  0.76633600  0.44512964  0.74642334     0.00800
C333        C  0.72419841  0.51071291  0.69632655     0.40100
C334        C  0.78173802  0.42317809  0.76320519     0.36700
C335        C  0.70862311  0.44975239  0.78661672     0.36500
C336        C  0.80311163  0.55573756  0.81013524     0.37200
N337        N  0.71269344  0.52955363  0.68328660    -0.43600
N338        N  0.79408781  0.40566735  0.77670013    -0.44000
N339        N  0.82274741  0.57702682  0.81455755    -0.41400
N340        N  0.68895516  0.42861159  0.78196405    -0.42800
H341        H  0.71875800  0.47514001  0.82733524     0.13300
H342        H  0.79320996  0.52952785  0.76930537     0.09800
H343        H  0.73204560  0.52459098  0.73936725     0.10900
H344        H  0.77301286  0.40771057  0.72015394     0.16700
C345        C  0.11625552  0.42597312  0.77927841    -0.01500
C346        C  0.13710310  0.45299841  0.77121119     0.07100
C347        C  0.16040018  0.46871197  0.78597198    -0.07500
C348        C  0.16286023  0.45837517  0.80858593     0.04500
C349        C  0.14129077  0.43191793  0.81699938    -0.14700
C350        C  0.11853511  0.41562008  0.80196247    -0.08000
C351        C  0.13534924  0.46531840  0.74743056     0.05500
C352        C  0.12026045  0.49719246  0.74282688    -0.09200
C353        C  0.11889815  0.51015018  0.72069105     0.00500
C354        C  0.13336466  0.49119596  0.70257031     0.00300
C355        C  0.14858164  0.45926309  0.70743380    -0.12700
C356        C  0.14963880  0.44632845  0.72950852     0.00800
C357        C  0.10169548  0.54245740  0.71719250     0.40100
C358        C  0.16607424  0.41373200  0.73345628     0.36700
C359        C  0.09164553  0.40921448  0.76474851     0.36500
C360        C  0.18840019  0.47493863  0.82253455     0.37200
N361        N  0.08776562  0.56831320  0.71447849    -0.43600
N362        N  0.17921109  0.38760074  0.73665987    -0.44000
N363        N  0.20898670  0.48820014  0.83362375    -0.41400
N364        N  0.07191264  0.39577012  0.75310433    -0.42800
H365        H  0.10169243  0.39545599  0.80808350     0.13300
H366        H  0.17687389  0.48910942  0.77973141     0.09800
H367        H  0.10925067  0.51189346  0.75661088     0.10900
H368        H  0.15985132  0.44417981  0.69393500     0.16700
C369        C  0.90672542  0.45927020  0.89584884    -0.01500
C370        C  0.93297596  0.48031819  0.88694029     0.07100
C371        C  0.92438642  0.51236624  0.87799135    -0.07500
C372        C  0.89025778  0.52382537  0.87789374     0.04500
C373        C  0.86373452  0.50299967  0.88716262    -0.14700
C374        C  0.87255268  0.47070018  0.89594230    -0.08000
C375        C  0.96941071  0.46892564  0.88602834     0.05500
C376        C  0.97811883  0.44137494  0.87199276    -0.09200
C377        C  0.01210204  0.42979149  0.87047349     0.00500
C378        C  0.03833390  0.44594871  0.88327503     0.00300
C379        C  0.02961306  0.47408837  0.89695020    -0.12700
C380        C  0.99548586  0.48554965  0.89846265     0.00800
C381        C  0.01922054  0.40184542  0.85514955     0.40100
C382        C  0.98758341  0.51367153  0.91343819     0.36700
C383        C  0.91434681  0.42607995  0.90534381     0.36500
C384        C  0.88351441  0.55663645  0.86754046     0.37200
N385        N  0.02481704  0.37947519  0.84284131    -0.43600
N386        N  0.98115412  0.53616611  0.92546246    -0.44000
N387        N  0.87835269  0.58291838  0.85916639    -0.41400
N388        N  0.92045930  0.39946102  0.91293009    -0.42800
H389        H  0.85275352  0.45432000  0.90307673     0.13300
H390        H  0.94447494  0.52832032  0.87075248     0.09800
H391        H  0.95821730  0.42897307  0.86208112     0.10900
H392        H  0.04931348  0.48662603  0.90694159     0.16700
C393        C  0.73473948  0.44888560  0.23697057    -0.01500
C394        C  0.75664789  0.46293575  0.25355180     0.07100
C395        C  0.78043750  0.48832579  0.24706809    -0.07500
C396        C  0.78244126  0.49993325  0.22461539     0.04500
C397        C  0.76045883  0.48584093  0.20798775    -0.14700
C398        C  0.73689905  0.46023071  0.21454616    -0.08000
C399        C  0.75503622  0.45157262  0.27768036     0.05500
C400        C  0.76102580  0.41702656  0.28310004    -0.09200
C401        C  0.75975115  0.40542666  0.30557493     0.00500
C402        C  0.75260904  0.42871613  0.32333945     0.00300
C403        C  0.74629250  0.46322889  0.31774928    -0.12700
C404        C  0.74747037  0.47471129  0.29531353     0.00800
C405        C  0.76517338  0.36939259  0.30970111     0.40100
C406        C  0.74019917  0.51032950  0.29079097     0.36700
C407        C  0.70911026  0.42343285  0.24262560     0.36500
C408        C  0.80806308  0.52543227  0.21909494     0.37200
N409        N  0.76944324  0.34046456  0.31292287    -0.43600
N410        N  0.73445646  0.53888103  0.28714515    -0.44000
N411        N  0.82869352  0.54583457  0.21474974    -0.41400
N412        N  0.68857338  0.40301052  0.24711222    -0.42800
H413        H  0.71963315  0.44922166  0.20212817     0.13300
H414        H  0.79770324  0.49898375  0.25961770     0.09800
H415        H  0.76681889  0.39901123  0.26966975     0.10900
H416        H  0.74072786  0.48160560  0.33100100     0.16700
C417        C  0.75923520  0.51426018  0.03684345    -0.01500
C418        C  0.76160345  0.54757884  0.02786533     0.07100
C419        C  0.76331620  0.57559711  0.04271202    -0.07500
C420        C  0.76270564  0.57073276  0.06629413     0.04500
C421        C  0.76059239  0.53715049  0.07536694    -0.14700
C422        C  0.75879061  0.50934071  0.06022954    -0.08000
C423        C  0.76215868  0.55294573  0.00295967     0.05500
C424        C  0.73211073  0.54626485  0.99063826    -0.09200
C425        C  0.73279267  0.54495567  0.96700645     0.00500
C426        C  0.76389112  0.55088544  0.95522009     0.00300
C427        C  0.79355116  0.55963111  0.96744547    -0.12700
C428        C  0.79295802  0.56032886  0.99120809     0.00800
C429        C  0.70132531  0.53685316  0.95517605     0.40100
C430        C  0.82465454  0.56624405  0.00326016     0.36700
C431        C  0.75785148  0.48454691  0.02230069     0.36500
C432        C  0.76355005  0.60068693  0.08058150     0.37200
N433        N  0.67617170  0.53035085  0.94565020    -0.43600
N434        N  0.84999010  0.57077187  0.01306033    -0.44000
N435        N  0.76413211  0.62481060  0.09195439    -0.41400
N436        N  0.75672923  0.46082419  0.01058837    -0.42800
H437        H  0.75730569  0.48334602  0.06662225     0.13300
H438        H  0.76489225  0.60131082  0.03584395     0.09800
H439        H  0.70837869  0.54057722  0.99957984     0.10900
H440        H  0.81756796  0.56396404  0.95851620     0.16700
C441        C  0.12212440  0.42542303  0.24342317    -0.01500
C442        C  0.12711954  0.46004595  0.24969110     0.07100
C443        C  0.13466050  0.48400492  0.23275061    -0.07500
C444        C  0.13726513  0.47425370  0.21000266     0.04500
C445        C  0.13284274  0.43938439  0.20361408    -0.14700
C446        C  0.12496643  0.41545179  0.22064947    -0.08000
C447        C  0.12613907  0.47164938  0.27382074     0.05500
C448        C  0.14909241  0.45698544  0.28929060    -0.09200
C449        C  0.14992259  0.46756299  0.31192701     0.00500
C450        C  0.12756001  0.49375981  0.31964346     0.00300
C451        C  0.10496837  0.50888717  0.30405460    -0.12700
C452        C  0.10395459  0.49799089  0.28140917     0.00800
C453        C  0.17489868  0.45171695  0.32660069     0.40100
C454        C  0.07924322  0.51360479  0.26645155     0.36700
C455        C  0.11341029  0.39971685  0.26001526     0.36500
C456        C  0.14369971  0.50109879  0.19372863     0.37200
N457        N  0.19493730  0.43898116  0.33832401    -0.43600
N458        N  0.05943711  0.52615851  0.25447591    -0.44000
N459        N  0.14874542  0.52278179  0.18079593    -0.41400
N460        N  0.10648025  0.37911863  0.27333652    -0.42800
H461        H  0.12104570  0.38877339  0.21621736     0.13300
H462        H  0.13877955  0.51060169  0.23736360     0.09800
H463        H  0.16682684  0.43736899  0.28356094     0.10900
H464        H  0.08750217  0.52880583  0.30966728     0.16700
C465        C  0.15341024  0.40404199  0.98779841    -0.01500
C466        C  0.12776126  0.38415654  0.99838961     0.07100
C467        C  0.10362547  0.36672716  0.98497879    -0.07500
C468        C  0.10437850  0.36959822  0.96125602     0.04500
C469        C  0.12954336  0.39046145  0.95068175    -0.14700
C470        C  0.15406976  0.40708357  0.96427083    -0.08000
C471        C  0.12462001  0.38397603  0.02345420     0.05500
C472        C  0.11063116  0.41292232  0.03397167    -0.09200
C473        C  0.11175312  0.41673128  0.05745450     0.00500
C474        C  0.12716951  0.39115154  0.07103718     0.00300
C475        C  0.13948917  0.36120718  0.06060018    -0.12700
C476        C  0.13854940  0.35761706  0.03692097     0.00800
C477        C  0.09678537  0.44726999  0.06717031     0.40100
C478        C  0.15345287  0.32756408  0.02665213     0.36700
C479        C  0.17917219  0.42193558  0.00083649     0.36500
C480        C  0.07804729  0.35236860  0.94835670     0.37200
N481        N  0.08482252  0.47172007  0.07496416    -0.43600
N482        N  0.16540965  0.30355951  0.01828207    -0.44000
N483        N  0.05689185  0.33858353  0.93802856    -0.41400
N484        N  0.19980091  0.43621272  0.01132532    -0.42800
H485        H  0.17384703  0.42281547  0.95648599     0.13300
H486        H  0.08367012  0.35162103  0.99308459     0.09800
H487        H  0.09975193  0.43316914  0.02367897     0.10900
H488        H  0.15125452  0.34138638  0.07080506     0.16700
C489        C  0.99016485  0.47802884  0.14595880    -0.01500
C490        C  0.96666943  0.45815258  0.13332313     0.07100
C491        C  0.97887796  0.43102784  0.12007367    -0.07500
C492        C  0.01387724  0.42289460  0.11973728     0.04500
C493        C  0.03737284  0.44244186  0.13263364    -0.14700
C494        C  0.02534766  0.47029075  0.14532047    -0.08000
C495        C  0.92933229  0.46570873  0.13336145     0.05500
C496        C  0.91814063  0.49661706  0.12393305    -0.09200
C497        C  0.88331959  0.50542908  0.12420676     0.00500
C498        C  0.85901457  0.48320214  0.13437015     0.00300
C499        C  0.87001664  0.45152543  0.14287860    -0.12700
C500        C  0.90493358  0.44262236  0.14242906     0.00800
C501        C  0.87313058  0.53688989  0.11325618     0.40100
C502        C  0.91524833  0.41023721  0.15202286     0.36700
C503        C  0.97851341  0.50528191  0.16058102     0.36500
C504        C  0.02509867  0.39459548  0.10581017     0.37200
N505        N  0.86496873  0.56195918  0.10432761    -0.43600
N506        N  0.92347502  0.38422417  0.15965457    -0.44000
N507        N  0.03409093  0.37192066  0.09467014    -0.41400
N508        N  0.96910813  0.52696593  0.17240748    -0.42800
H509        H  0.04320830  0.48499337  0.15553287     0.13300
H510        H  0.96094029  0.41607201  0.11007814     0.09800
H511        H  0.93674717  0.51389860  0.11632629     0.10900
H512        H  0.85151172  0.43423138  0.15056406     0.16700
C513        C  0.56065114  0.28080129  0.40979414    -0.01500
C514        C  0.56689326  0.30173912  0.39073964     0.07100
C515        C  0.54837964  0.29545729  0.37077688    -0.07500
C516        C  0.52712202  0.26658780  0.36878594     0.04500
C517        C  0.52372234  0.24384650  0.38709628    -0.14700
C518        C  0.53904496  0.25214312  0.40782271    -0.08000
C519        C  0.59803023  0.32392099  0.38932326     0.05500
C520        C  0.62415647  0.31355227  0.37446286    -0.09200
C521        C  0.65549580  0.33098738  0.37333331     0.00500
C522        C  0.66137683  0.35981613  0.38732411     0.00300
C523        C  0.63467448  0.37112734  0.40159619    -0.12700
C524        C  0.60321306  0.35332958  0.40278839     0.00800
C525        C  0.68097533  0.31854192  0.35752260     0.40100
C526        C  0.57691623  0.36547770  0.41804879     0.36700
C527        C  0.57893429  0.28583694  0.43074534     0.36500
C528        C  0.51142854  0.25915746  0.34725088     0.37200
N529        N  0.70131279  0.30840064  0.34487583    -0.43600
N530        N  0.55599489  0.37516925  0.43043285    -0.44000
N531        N  0.49876958  0.25324135  0.33000786    -0.41400
N532        N  0.59341469  0.28991278  0.44759819    -0.42800
H533        H  0.53683126  0.23439207  0.42186357     0.13300
H534        H  0.55298183  0.31142804  0.35607825     0.09800
H535        H  0.62032606  0.29101202  0.36401424     0.10900
H536        H  0.63875433  0.39322857  0.41237495     0.16700
C537        C  0.29578221  0.65722869  0.38499695    -0.01500
C538        C  0.30836091  0.62395096  0.38110156     0.07100
C539        C  0.34333599  0.61944403  0.37582288    -0.07500
C540        C  0.36563136  0.64785982  0.37399340     0.04500
C541        C  0.35257957  0.68137957  0.37700123    -0.14700
C542        C  0.31770344  0.68536962  0.38285407    -0.08000
C543        C  0.28408451  0.59453365  0.38089903     0.05500
C544        C  0.26709861  0.58700442  0.36061845    -0.09200
C545        C  0.23734143  0.56671670  0.36055463     0.00500
C546        C  0.22447714  0.55321482  0.38099756     0.00300
C547        C  0.24313837  0.55821525  0.40099200    -0.12700
C548        C  0.27265911  0.57902752  0.40111253     0.00800
C549        C  0.21921533  0.56162524  0.33953490     0.40100
C550        C  0.28919845  0.58639145  0.42237379     0.36700
C551        C  0.26011979  0.66323013  0.39073455     0.36500
C552        C  0.40121508  0.64195175  0.36823101     0.37200
N553        N  0.20456402  0.55744022  0.32275821    -0.43600
N554        N  0.30240951  0.59236307  0.43942929    -0.44000
N555        N  0.42976458  0.63707527  0.36366046    -0.41400
N556        N  0.23158477  0.66806755  0.39536072    -0.42800
H557        H  0.30729410  0.71078139  0.38573034     0.13300
H558        H  0.35304562  0.59382093  0.37278427     0.09800
H559        H  0.27563139  0.59908029  0.34507691     0.10900
H560        H  0.23308264  0.54829515  0.41679662     0.16700
C561        C  0.47107223  0.91254945  0.39251820    -0.01500
C562        C  0.46657759  0.93337732  0.37326282     0.07100
C563        C  0.45587253  0.91840149  0.35293281    -0.07500
C564        C  0.44737181  0.88358515  0.35198539     0.04500
C565        C  0.44980957  0.86319136  0.37160294    -0.14700
C566        C  0.46274009  0.87760914  0.39154542    -0.08000
C567        C  0.47196120  0.97098438  0.37404981     0.05500
C568        C  0.49963347  0.98522696  0.36212999    -0.09200
C569        C  0.50559281  0.02061087  0.36233581     0.00500
C570        C  0.48346002  0.04256807  0.37475365     0.00300
C571        C  0.45513003  0.02817601  0.38615761    -0.12700
C572        C  0.44922732  0.99274894  0.38585159     0.00800
C573        C  0.53412467  0.03348779  0.34913360     0.40100
C574        C  0.41933151  0.97931098  0.39739448     0.36700
C575        C  0.48350795  0.92669306  0.41350676     0.36500
C576        C  0.43592636  0.86930962  0.33075705     0.37200
N577        N  0.55697296  0.04373625  0.33851200    -0.43600
N578        N  0.39536988  0.96846438  0.40660086    -0.44000
N579        N  0.42691058  0.85779237  0.31374609    -0.41400
N580        N  0.49346090  0.93812651  0.43031034    -0.42800
H581        H  0.46460081  0.86203654  0.40665037     0.13300
H582        H  0.45309036  0.93420166  0.33797852     0.09800
H583        H  0.51669226  0.96855205  0.35265066     0.10900
H584        H  0.43771371  0.04455381  0.39556426     0.16700
C585        C  0.59403724  0.27736773  0.62906823    -0.01500
C586        C  0.57667154  0.30568347  0.63844941     0.07100
C587        C  0.54220412  0.30204206  0.64524534    -0.07500
C588        C  0.52523123  0.27027651  0.64316804     0.04500
C589        C  0.54320508  0.24158858  0.63458446    -0.14700
C590        C  0.57739433  0.24577717  0.62735475    -0.08000
C591        C  0.59605631  0.33775075  0.64296238     0.05500
C592        C  0.60395313  0.35957209  0.62481616    -0.09200
C593        C  0.63159153  0.38268829  0.62620075     0.00500
C594        C  0.65187345  0.38373404  0.64594246     0.00300
C595        C  0.64168286  0.36441497  0.66481435    -0.12700
C596        C  0.61380519  0.34174049  0.66352837     0.00800
C597        C  0.64111655  0.40188366  0.60629011     0.40100
C598        C  0.60600811  0.32034388  0.68277748     0.36700
C599        C  0.62948236  0.27991387  0.62176694     0.36500
C600        C  0.49017859  0.26735145  0.65103756     0.37200
N601        N  0.64882309  0.41723664  0.59033321    -0.43600
N602        N  0.59965616  0.30319252  0.69818174    -0.44000
N603        N  0.46205866  0.26498793  0.65734350    -0.41400
N604        N  0.65784194  0.28216953  0.61592657    -0.42800
H605        H  0.59137812  0.22409267  0.62048021     0.13300
H606        H  0.52890029  0.32373035  0.65264091     0.09800
H607        H  0.59052099  0.35636151  0.60891532     0.10900
H608        H  0.65705544  0.36523598  0.68007934     0.16700
C609        C  0.56195452  0.15355860  0.47719317    -0.01500
C610        C  0.54179505  0.13359031  0.49210317     0.07100
C611        C  0.51622787  0.11211881  0.48310646    -0.07500
C612        C  0.50939944  0.11166974  0.45983717     0.04500
C613        C  0.52856128  0.13276817  0.44501420    -0.14700
C614        C  0.55547107  0.15275644  0.45383638    -0.08000
C615        C  0.54408207  0.13751172  0.51715038     0.05500
C616        C  0.53376052  0.16868092  0.52683458    -0.09200
C617        C  0.53062816  0.17224663  0.55030328     0.00500
C618        C  0.53753857  0.14416478  0.56462695     0.00300
C619        C  0.55023113  0.11371940  0.55509445    -0.12700
C620        C  0.55348277  0.11020548  0.53152377     0.00800
C621        C  0.52039258  0.20507595  0.55935136     0.40100
C622        C  0.56626091  0.07835301  0.52243293     0.36700
C623        C  0.58894962  0.17553593  0.48560293     0.36500
C624        C  0.48262071  0.08927950  0.45152809     0.37200
N625        N  0.51250166  0.23143520  0.56665764    -0.43600
N626        N  0.57674226  0.05287948  0.51517201    -0.44000
N627        N  0.46127029  0.07127914  0.44480047    -0.41400
N628        N  0.61053714  0.19313372  0.49245422    -0.42800
H629        H  0.57038457  0.16899916  0.44260796     0.13300
H630        H  0.50064188  0.09664488  0.49441599     0.09800
H631        H  0.52699883  0.18998222  0.51596054     0.10900
H632        H  0.55595271  0.09211084  0.56595439     0.16700
C633        C  0.33793369  0.62415657  0.61502904    -0.01500
C634        C  0.31248246  0.61890668  0.63175329     0.07100
C635        C  0.30958846  0.64244098  0.64954118    -0.07500
C636        C  0.32930877  0.67242867  0.64979156     0.04500
C637        C  0.35264155  0.67925499  0.63199840    -0.14700
C638        C  0.35791916  0.65419530  0.61531263    -0.08000
C639        C  0.28509273  0.59246270  0.62959016     0.05500
C640        C  0.28090543  0.56776005  0.64669386    -0.09200
C641        C  0.25080940  0.54781299  0.64796031     0.00500
C642        C  0.22443517  0.55281076  0.63203457     0.00300
C643        C  0.22947264  0.57597073  0.61426290    -0.12700
C644        C  0.25941431  0.59574116  0.61288866     0.00800
C645        C  0.24641656  0.52428380  0.66655595     0.40100
C646        C  0.26164134  0.62141774  0.59537127     0.36700
C647        C  0.34290688  0.59979145  0.59697332     0.36500
C648        C  0.32458032  0.69614243  0.66828990     0.37200
N649        N  0.24282542  0.50539277  0.68144609    -0.43600
N650        N  0.26337886  0.64197195  0.58132681    -0.44000
N651        N  0.32083957  0.71509491  0.68313357    -0.41400
N652        N  0.34685851  0.58027826  0.58247636    -0.42800
H653        H  0.37607584  0.65901423  0.60173693     0.13300
H654        H  0.29037789  0.63834860  0.66260333     0.09800
H655        H  0.30031934  0.56540717  0.65972614     0.10900
H656        H  0.20900210  0.58003555  0.60211350     0.16700
C657        C  0.34898436  0.80235533  0.52445500    -0.01500
C658        C  0.36439901  0.77743698  0.51047548     0.07100
C659        C  0.37971980  0.74866527  0.52038399    -0.07500
C660        C  0.38169706  0.74542446  0.54388486     0.04500
C661        C  0.36836298  0.77150792  0.55798182    -0.14700
C662        C  0.35069209  0.79900655  0.54806132    -0.08000
C663        C  0.36829566  0.78221902  0.48570743     0.05500
C664        C  0.40092623  0.79092668  0.47738182    -0.09200
C665        C  0.40738622  0.79207686  0.45415701     0.00500
C666        C  0.38090973  0.78403997  0.43868587     0.00300
C667        C  0.34767345  0.77716269  0.44697671    -0.12700
C668        C  0.34124774  0.77609644  0.47036603     0.00800
C669        C  0.44144750  0.80178116  0.44664126     0.40100
C670        C  0.30723511  0.76725100  0.47829093     0.36700
C671        C  0.33317977  0.83248712  0.51495509     0.36500
C672        C  0.39745797  0.71499586  0.55310548     0.37200
N673        N  0.46869845  0.80964365  0.44062158    -0.43600
N674        N  0.27997079  0.76023283  0.48471818    -0.44000
N675        N  0.40990618  0.69052436  0.56047577    -0.41400
N676        N  0.32056796  0.85666714  0.50730459    -0.42800
H677        H  0.33988767  0.81884863  0.55870343     0.13300
H678        H  0.39113770  0.72917284  0.50966923     0.09800
H679        H  0.42164582  0.79617915  0.48914624     0.10900
H680        H  0.32716983  0.77100625  0.43525458     0.16700
C681        C  0.43246458  0.00249157  0.62488360    -0.01500
C682        C  0.45700878  0.97725341  0.61892935     0.07100
C683        C  0.49050807  0.98768204  0.61332305    -0.07500
C684        C  0.50022532  0.02218351  0.61453093     0.04500
C685        C  0.47605920  0.04728306  0.62133167    -0.14700
C686        C  0.44209896  0.03715012  0.62590148    -0.08000
C687        C  0.44827560  0.93998481  0.61820279     0.05500
C688        C  0.42124735  0.92889212  0.60432663    -0.09200
C689        C  0.41115051  0.89444526  0.60390836     0.00500
C690        C  0.42869043  0.87006499  0.61720304     0.00300
C691        C  0.45682973  0.88072585  0.63023733    -0.12700
C692        C  0.46654876  0.91538260  0.63099730     0.00800
C693        C  0.38294055  0.88479131  0.58942189     0.40100
C694        C  0.49430606  0.92520819  0.64583603     0.36700
C695        C  0.39756346  0.99343405  0.63083600     0.36500
C696        C  0.53499276  0.03114445  0.60810020     0.37200
N697        N  0.36031936  0.87748838  0.57769273    -0.43600
N698        N  0.51660105  0.93303607  0.65770459    -0.44000
N699        N  0.56283255  0.03826639  0.60289958    -0.41400
N700        N  0.36953341  0.98625576  0.63552663    -0.42800
H701        H  0.42334376  0.05617704  0.63105893     0.13300
H702        H  0.50921654  0.96870813  0.60800274     0.09800
H703        H  0.40772361  0.94733208  0.59392660     0.10900
H704        H  0.47023646  0.86221433  0.64065051     0.16700
C705        C  0.57255984  0.63716848  0.85625142    -0.01500
C706        C  0.57152715  0.61755619  0.87625845     0.07100
C707        C  0.54657202  0.62506700  0.89274082    -0.07500
C708        C  0.52491399  0.65359292  0.89042909     0.04500
C709        C  0.52850999  0.67519840  0.87144991    -0.14700
C710        C  0.55115680  0.66570300  0.85403867    -0.08000
C711        C  0.60117866  0.59557649  0.88240715     0.05500
C712        C  0.62417412  0.60854844  0.89851586    -0.09200
C713        C  0.65650092  0.59372477  0.90155351     0.00500
C714        C  0.66604641  0.56491137  0.88859699     0.00300
C715        C  0.64198487  0.55007638  0.87387156    -0.12700
C716        C  0.60975074  0.56541470  0.87050648     0.00800
C717        C  0.67972603  0.60908257  0.91769178     0.40100
C718        C  0.58667049  0.55085038  0.85401896     0.36700
C719        C  0.59789727  0.63082278  0.83884539     0.36500
C720        C  0.50211334  0.66221303  0.90885370     0.37200
N721        N  0.69824817  0.62142135  0.93065005    -0.43600
N722        N  0.56832331  0.53921138  0.84068300    -0.44000
N723        N  0.48386938  0.66915783  0.92363781    -0.41400
N724        N  0.61819231  0.62565270  0.82491861    -0.42800
H725        H  0.55390996  0.68209215  0.83933883     0.13300
H726        H  0.54588427  0.61021447  0.90821805     0.09800
H727        H  0.61766883  0.63167212  0.90776255     0.10900
H728        H  0.64917400  0.52782606  0.86395330     0.16700
C729        C  0.47621210  0.79257519  0.76843238    -0.01500
C730        C  0.44843876  0.77243681  0.76075372     0.07100
C731        C  0.43208205  0.75000865  0.77581922    -0.07500
C732        C  0.44258366  0.74782269  0.79841490     0.04500
C733        C  0.46962491  0.76900968  0.80645931    -0.14700
C734        C  0.48646624  0.79085802  0.79110221    -0.08000
C735        C  0.43750388  0.77292331  0.73671742     0.05500
C736        C  0.45891295  0.75767633  0.72061213    -0.09200
C737        C  0.45019703  0.75759724  0.69769750     0.00500
C738        C  0.41917211  0.77329963  0.69032873     0.00300
C739        C  0.39755670  0.78830595  0.70670544    -0.12700
C740        C  0.40645848  0.78817611  0.72970620     0.00800
C741        C  0.47384285  0.74084399  0.68242725     0.40100
C742        C  0.38378269  0.80446595  0.74578313     0.36700
C743        C  0.49421418  0.81553740  0.75335674     0.36500
C744        C  0.42603010  0.72256347  0.81260782     0.37200
N745        N  0.49293358  0.72735146  0.67032059    -0.43600
N746        N  0.36567155  0.81755387  0.75870210    -0.44000
N747        N  0.41291946  0.70213813  0.82390973    -0.41400
N748        N  0.50861230  0.83383598  0.74118461    -0.42800
H749        H  0.50731990  0.80712644  0.79687420     0.13300
H750        H  0.41140426  0.73372643  0.76977235     0.09800
H751        H  0.48266858  0.74568375  0.72604387     0.10900
H752        H  0.37372485  0.80038455  0.70157333     0.16700
C753        C  0.31923732  0.28588761  0.86012274    -0.01500
C754        C  0.31980060  0.30564811  0.88008140     0.07100
C755        C  0.34241718  0.29648473  0.89753078    -0.07500
C756        C  0.36266649  0.26679940  0.89587672     0.04500
C757        C  0.35962174  0.24540989  0.87674044    -0.14700
C758        C  0.33879561  0.25589935  0.85870353    -0.08000
C759        C  0.29191858  0.33071333  0.88465538     0.05500
C760        C  0.26474477  0.31992153  0.89852606    -0.09200
C761        C  0.23419311  0.33861778  0.89973069     0.00500
C762        C  0.23032994  0.36876773  0.88678783     0.00300
C763        C  0.25860713  0.38128498  0.87444152    -0.12700
C764        C  0.28937950  0.36238941  0.87328204     0.00800
C765        C  0.20693953  0.32609387  0.91421846     0.40100
C766        C  0.31768973  0.37535789  0.85997120     0.36700
C767        C  0.29660039  0.29431834  0.84163154     0.36500
C768        C  0.38386697  0.25722466  0.91483779     0.37200
N769        N  0.18513511  0.31619736  0.92587926    -0.43600
N770        N  0.34053983  0.38579036  0.84943505    -0.44000
N771        N  0.40092290  0.24950860  0.92999912    -0.41400
N772        N  0.27851943  0.30118598  0.82681049    -0.42800
H773        H  0.33651483  0.23969666  0.84388232     0.13300
H774        H  0.34271986  0.31142857  0.91297778     0.09800
H775        H  0.26676602  0.29582764  0.90756628     0.10900
H776        H  0.25607041  0.40475755  0.86479832     0.16700
C777        C  0.40968847  0.12739553  0.77257173    -0.01500
C778        C  0.43532126  0.14979681  0.76411849     0.07100
C779        C  0.44909337  0.17465773  0.77868799    -0.07500
C780        C  0.43911202  0.17641266  0.80146477     0.04500
C781        C  0.41508544  0.15256718  0.81033658    -0.14700
C782        C  0.39996024  0.12883849  0.79545946    -0.08000
C783        C  0.44816931  0.14787443  0.74024106     0.05500
C784        C  0.42503064  0.15214942  0.72233028    -0.09200
C785        C  0.43607259  0.15066462  0.69974622     0.00500
C786        C  0.47147961  0.14577116  0.69450775     0.00300
C787        C  0.49455562  0.14128036  0.71255144    -0.12700
C788        C  0.48323994  0.14206510  0.73513223     0.00800
C789        C  0.41000350  0.15336066  0.68248964     0.40100
C790        C  0.50799357  0.13581128  0.75279453     0.36700
C791        C  0.39362599  0.10206369  0.75826547     0.36500
C792        C  0.45310043  0.20377428  0.81509490     0.37200
N793        N  0.38896399  0.15527765  0.66874328    -0.43600
N794        N  0.52774721  0.13070060  0.76699074    -0.44000
N795        N  0.46408680  0.22586856  0.82596806    -0.41400
N796        N  0.38054285  0.08197463  0.74672881    -0.42800
H797        H  0.38113931  0.11069182  0.80183795     0.13300
H798        H  0.46778113  0.19285928  0.77219332     0.09800
H799        H  0.39804916  0.15659756  0.72602269     0.10900
H800        H  0.52162443  0.13706640  0.70907010     0.16700
C801        C  0.46345446  0.00420651  0.86907365    -0.01500
C802        C  0.44207715  0.97940935  0.87948013     0.07100
C803        C  0.41245260  0.99027467  0.89099428    -0.07500
C804        C  0.40308293  0.02487594  0.89140784     0.04500
C805        C  0.42364528  0.04951335  0.88017582    -0.14700
C806        C  0.45415630  0.03892361  0.86956106    -0.08000
C807        C  0.45015013  0.94210639  0.87867580     0.05500
C808        C  0.48140491  0.93053522  0.88763594    -0.09200
C809        C  0.49031222  0.89583172  0.88679197     0.00500
C810        C  0.46755226  0.87177132  0.87692028     0.00300
C811        C  0.43572718  0.88311581  0.86870349    -0.12700
C812        C  0.42696841  0.91795369  0.86938701     0.00800
C813        C  0.52249330  0.88551806  0.89688774     0.40100
C814        C  0.39451112  0.92840063  0.85980607     0.36700
C815        C  0.49446950  0.99459790  0.85719076     0.36500
C816        C  0.37285339  0.03451737  0.90414888     0.37200
N817        N  0.54821682  0.87720042  0.90501430    -0.43600
N818        N  0.36845355  0.93679142  0.85219415    -0.44000
N819        N  0.34874180  0.04226368  0.91445603    -0.41400
N820        N  0.51942649  0.98692360  0.84776969    -0.42800
H821        H  0.47022624  0.05765975  0.86103270     0.13300
H822        H  0.39653596  0.97157483  0.89968410     0.09800
H823        H  0.49889770  0.94873460  0.89538993     0.10900
H824        H  0.41806692  0.86488027  0.86115721     0.16700
C825        C  0.59049306  0.63907212  0.11670129    -0.01500
C826        C  0.58082947  0.61587481  0.13387853     0.07100
C827        C  0.55164708  0.62285486  0.14714045    -0.07500
C828        C  0.53291502  0.65323060  0.14402528     0.04500
C829        C  0.54369165  0.67708067  0.12754584    -0.14700
C830        C  0.57190109  0.66928206  0.11367666    -0.08000
C831        C  0.60447788  0.58781478  0.14036612     0.05500
C832        C  0.62488188  0.59269341  0.15958920    -0.09200
C833        C  0.65456592  0.57316788  0.16290911     0.00500
C834        C  0.66391765  0.54797197  0.14688401     0.00300
C835        C  0.64126492  0.54038550  0.12912790    -0.12700
C836        C  0.61177099  0.56030513  0.12566602     0.00800
C837        C  0.67586838  0.58064768  0.18227796     0.40100
C838        C  0.59084796  0.55385891  0.10600523     0.36700
C839        C  0.62119070  0.63389116  0.10328924     0.36500
C840        C  0.50489899  0.66087362  0.15926646     0.37200
N841        N  0.69297250  0.58666762  0.19776453    -0.43600
N842        N  0.57416383  0.54879082  0.09018453    -0.44000
N843        N  0.48253006  0.66718211  0.17151603    -0.41400
N844        N  0.64584220  0.62963679  0.09264573    -0.42800
H845        H  0.58051510  0.68775641  0.10117453     0.13300
H846        H  0.54459408  0.60542067  0.16064734     0.09800
H847        H  0.61915035  0.61363195  0.17105165     0.10900
H848        H  0.64808979  0.52090926  0.11684171     0.16700
C849        C  0.49819787  0.74929297  0.23068879    -0.01500
C850        C  0.46992849  0.76868033  0.23869851     0.07100
C851        C  0.45328124  0.79115878  0.22382446    -0.07500
C852        C  0.46318972  0.79333948  0.20114703     0.04500
C853        C  0.49102220  0.77356450  0.19307525    -0.14700
C854        C  0.50876127  0.75219079  0.20806035    -0.08000
C855        C  0.45735865  0.76621995  0.26248074     0.05500
C856        C  0.48006870  0.77380093  0.28016541    -0.09200
C857        C  0.46909204  0.77287359  0.30270438     0.00500
C858        C  0.43452282  0.76444082  0.30796507     0.00300
C859        C  0.41164487  0.75731990  0.29027869    -0.12700
C860        C  0.42279978  0.75784097  0.26771234     0.00800
C861        C  0.49347013  0.78255151  0.31996926     0.40100
C862        C  0.39845089  0.74903209  0.25025652     0.36700
C863        C  0.51554820  0.72491136  0.24499629     0.36500
C864        C  0.44433824  0.81608470  0.18643070     0.37200
N865        N  0.51303499  0.79043082  0.33374459    -0.43600
N866        N  0.37895742  0.74203793  0.23623706    -0.44000
N867        N  0.42918985  0.83418143  0.17460251    -0.41400
N868        N  0.52939224  0.70528661  0.25644578    -0.42800
H869        H  0.52979199  0.73655049  0.20183186     0.13300
H870        H  0.43209613  0.80672974  0.22989950     0.09800
H871        H  0.50638252  0.78110463  0.27630671     0.10900
H872        H  0.38508976  0.75093873  0.29411279     0.16700
C873        C  0.49341923  0.79321418  0.97623370    -0.01500
C874        C  0.52462501  0.78347618  0.98638939     0.07100
C875        C  0.55221074  0.77301403  0.97268870    -0.07500
C876        C  0.54864372  0.77117348  0.94908389     0.04500
C877        C  0.51690230  0.77980524  0.93895654    -0.14700
C878        C  0.48979114  0.79126894  0.95278948    -0.08000
C879        C  0.52724060  0.78065365  0.01131845     0.05500
C880        C  0.51160887  0.75247290  0.02179347    -0.09200
C881        C  0.51002020  0.75000437  0.04532539     0.00500
C882        C  0.52447851  0.77611707  0.05893949     0.00300
C883        C  0.54146905  0.80368906  0.04841369    -0.12700
C884        C  0.54261765  0.80628586  0.02473079     0.00800
C885        C  0.49350074  0.72022517  0.05502190     0.40100
C886        C  0.55812680  0.83615531  0.01454078     0.36700
C887        C  0.46454137  0.80474114  0.98962691     0.36500
C888        C  0.57712313  0.75834290  0.93589813     0.37200
N889        N  0.48023632  0.69639867  0.06279690    -0.43600
N890        N  0.57039437  0.86016532  0.00632639    -0.44000
N891        N  0.59995519  0.74793046  0.92536552    -0.41400
N892        N  0.44143369  0.81400752  0.00036645    -0.42800
H893        H  0.46542351  0.79846295  0.94526784     0.13300
H894        H  0.57612732  0.76514994  0.98051769     0.09800
H895        H  0.49987755  0.73267702  0.01147512     0.10900
H896        H  0.55246650  0.82395819  0.05865976     0.16700
C897        C  0.34484808  0.29762729  0.14412771    -0.01500
C898        C  0.31405340  0.30130376  0.13174344     0.07100
C899        C  0.30409088  0.27520180  0.11686412    -0.07500
C900        C  0.32269471  0.24464492  0.11551349     0.04500
C901        C  0.35205854  0.23980775  0.12918982    -0.14700
C902        C  0.36374633  0.26699084  0.14269569    -0.08000
C903        C  0.28920815  0.32957328  0.13597006     0.05500
C904        C  0.28142292  0.35268692  0.11852733    -0.09200
C905        C  0.25295580  0.37472783  0.12020364     0.00500
C906        C  0.23152514  0.37339075  0.13948957     0.00300
C907        C  0.24053530  0.35164092  0.15740696    -0.12700
C908        C  0.26907250  0.32992756  0.15584021     0.00800
C909        C  0.24437995  0.39595248  0.10106538     0.40100
C910        C  0.27540570  0.30614236  0.17405022     0.36700
C911        C  0.35676368  0.32450429  0.15891611     0.36500
C912        C  0.31072784  0.21829987  0.10023799     0.37200
N913        N  0.23738857  0.41293322  0.08573063    -0.43600
N914        N  0.28055551  0.28705082  0.18860386    -0.44000
N915        N  0.30121549  0.19719968  0.08799484    -0.41400
N916        N  0.36626894  0.34612679  0.17075045    -0.42800
H917        H  0.38644282  0.26359871  0.15307105     0.13300
H918        H  0.28065095  0.27801067  0.10712208     0.09800
H919        H  0.29651435  0.35218156  0.10309656     0.10900
H920        H  0.22407203  0.35025129  0.17221006     0.16700
C921        C  0.42698448  0.13826006  0.28637567    -0.01500
C922        C  0.44748147  0.15203127  0.26881341     0.07100
C923        C  0.47959234  0.16643853  0.27446178    -0.07500
C924        C  0.49174556  0.16632126  0.29683132     0.04500
C925        C  0.47108823  0.15277126  0.31438453    -0.14700
C926        C  0.43858080  0.13928778  0.30884023    -0.08000
C927        C  0.43636438  0.15083127  0.24449972     0.05500
C928        C  0.40464573  0.16524469  0.23801489    -0.09200
C929        C  0.39357522  0.16445086  0.21536906     0.00500
C930        C  0.41457857  0.14945128  0.19858515     0.00300
C931        C  0.44632127  0.13533215  0.20502252    -0.12700
C932        C  0.45713093  0.13557818  0.22762840     0.00800
C933        C  0.36144093  0.18068798  0.20958432     0.40100
C934        C  0.48928163  0.11910015  0.23313094     0.36700
C935        C  0.39480636  0.12116904  0.28166561     0.36500
C936        C  0.52530900  0.18067630  0.30129654     0.37200
N937        N  0.33577715  0.19382365  0.20484392    -0.43600
N938        N  0.51506546  0.10595552  0.23756929    -0.44000
N939        N  0.55227819  0.19208025  0.30483540    -0.41400
N940        N  0.36911923  0.10729008  0.27786312    -0.42800
H941        H  0.42262926  0.12826622  0.32204001     0.13300
H942        H  0.49548092  0.17750215  0.26125201     0.09800
H943        H  0.38863210  0.17752579  0.25065693     0.10900
H944        H  0.46262215  0.12353936  0.19231938     0.16700
C945        C  0.35747935  0.11091027  0.03035218    -0.01500
C946        C  0.36513609  0.14038710  0.01745015     0.07100
C947        C  0.37423630  0.17072435  0.02863017    -0.07500
C948        C  0.37732474  0.17166137  0.05221248     0.04500
C949        C  0.37108498  0.14182550  0.06516747    -0.14700
C950        C  0.36014253  0.11189125  0.05407419    -0.08000
C951        C  0.36798685  0.13930294  0.99233513     0.05500
C952        C  0.33958973  0.14749763  0.97874264    -0.09200
C953        C  0.34269504  0.14888484  0.95502497     0.00500
C954        C  0.37487899  0.14236349  0.94457688     0.00300
C955        C  0.40300084  0.13374363  0.95837509    -0.12700
C956        C  0.39976161  0.13203376  0.98191330     0.00800
C957        C  0.31288282  0.15845241  0.94199255     0.40100
C958        C  0.42957369  0.12306702  0.99515775     0.36700
C959        C  0.34834817  0.07909185  0.01946856     0.36500
C960        C  0.38691313  0.20366172  0.06276631     0.37200
N961        N  0.28895861  0.16613989  0.93156200    -0.43600
N962        N  0.45336702  0.11582336  0.00584459    -0.44000
N963        N  0.39449864  0.22927602  0.07128159    -0.41400
N964        N  0.34110926  0.05362352  0.01064400    -0.42800
H965        H  0.35528674  0.08885836  0.06381891     0.11700
H966        H  0.38010361  0.19346508  0.01880932     0.09800
H967        H  0.31513072  0.15334599  0.98670083     0.10900
H968        H  0.42779771  0.12827864  0.95074752     0.16700
C969        C  0.46402499  0.00332631  0.11724264    -0.01500
C970        C  0.44749671  0.97836580  0.13065666     0.07100
C971        C  0.42132530  0.98827821  0.14552583    -0.07500
C972        C  0.41081954  0.02247548  0.14683962     0.04500
C973        C  0.42650667  0.04756794  0.13284016    -0.14700
C974        C  0.45349301  0.03763376  0.11842529    -0.08000
C975        C  0.45766850  0.94183130  0.12983937     0.05500
C976        C  0.48872864  0.93211562  0.13980276    -0.09200
C977        C  0.49937055  0.89791748  0.13958844     0.00500
C978        C  0.47908710  0.87268382  0.12854292     0.00300
C979        C  0.44745715  0.88249667  0.11907911    -0.12700
C980        C  0.43652457  0.91668669  0.11985196     0.00800
C981        C  0.53045069  0.88957425  0.15174371     0.40100
C982        C  0.40363612  0.92548255  0.11019643     0.36700
C983        C  0.49117912  0.99406323  0.10172459     0.36500
C984        C  0.38454706  0.03102011  0.16320224     0.37200
N985        N  0.55520015  0.88294129  0.16165172    -0.43600
N986        N  0.37717779  0.93255879  0.10259899    -0.44000
N987        N  0.36355733  0.03774895  0.17637479    -0.41400
N988        N  0.51291690  0.98651318  0.08929625    -0.42800
H989        H  0.46579136  0.05649756  0.10763529     0.13300
H990        H  0.40916814  0.96916991  0.15621660     0.09800
H991        H  0.50446739  0.95134345  0.14809300     0.10900
H992        H  0.43128553  0.86351276  0.11093577     0.16700
loop_ 
_geom_bond_atom_site_label_1 
_geom_bond_atom_site_label_2 
_geom_bond_distance 
_geom_bond_site_symmetry_2 
_ccdc_geom_bond_type 
O1            V9   1.917       .  S
O1           C11   1.268       .  A
O2            V9   1.914       .  S
O2           C12   1.269       .  A
O3            V9   1.896       .  S
O3           C13   1.263       .  A
O4            V9   1.898       .  S
O4           C14   1.263       .  A
O5           V10   1.920       .  S
O5           C14   1.270       .  A
O6           V10   1.920       .  S
O6           C13   1.269       .  A
O7           V10   1.886       .  S
O7           C12   1.261       .  A
O8           V10   1.885       .  S
O8           C11   1.261       .  A
V9           V10   2.083       .  T
C11         C901   1.479       .  S
C12         C973   1.485       .  S
C13         C949   1.487       .  S
C14         C930   1.490       .  S
O15          V23   1.912       .  S
O15          C25   1.267       .  A
O16          V23   1.910       .  S
O16          C26   1.268       .  A
O17          V23   1.889       .  S
O17          C27   1.262       .  A
O18          V23   1.884       .  S
O18          C28   1.260       .  A
O19          V24   1.915       .  S
O19          C28   1.268       .  A
O20          V24   1.914       .  S
O20          C27   1.268       .  A
O21          V24   1.884       .  S
O21          C26   1.261       .  A
O22          V24   1.884       .  S
O22          C25   1.261       .  A
V23          V24   2.085       .  T
C25         C829   1.473       .  S
C26         C978   1.486       .  S
C27         C882   1.483       .  S
C28         C853   1.474       .  S
O29          V37   1.911       .  S
O29          C39   1.266       .  A
O30          V37   1.910       .  S
O30          C40   1.267       .  A
O31          V37   1.900       .  S
O31          C41   1.265       .  A
O32          V37   1.897       .  S
O32          C42   1.265       .  A
O33          V38   1.917       .  S
O33          C42   1.269       .  A
O34          V38   1.916       .  S
O34          C41   1.269       .  A
O35          V38   1.892       .  S
O35          C40   1.263       .  A
O36          V38   1.892       .  S
O36          C39   1.263       .  A
V37          V38   2.082       .  T
C39         C757   1.478       .  S
C40         C805   1.481       .  S
C41         C781   1.495       .  S
C42         C954   1.494       .  S
O43          V51   1.914       .  S
O43          C53   1.267       .  A
O44          V51   1.911       .  S
O44          C54   1.268       .  A
O45          V51   1.893       .  S
O45          C55   1.263       .  A
O46          V51   1.889       .  S
O46          C56   1.263       .  A
O47          V52   1.914       .  S
O47          C56   1.268       .  A
O48          V52   1.911       .  S
O48          C55   1.268       .  A
O49          V52   1.887       .  S
O49          C54   1.261       .  A
O50          V52   1.886       .  S
O50          C53   1.262       .  A
V51          V52   2.084       .  T
C53         C709   1.478       .  S
C54         C810   1.481       .  S
C55         C733   1.489       .  S
C56         C877   1.485       .  S
O57          V65   1.913       .  S
O57          C67   1.267       .  A
O58          V65   1.915       .  S
O58          C68   1.268       .  A
O59          V65   1.888       .  S
O59          C69   1.261       .  A
O60          V65   1.889       .  S
O60          C70   1.262       .  A
O61          V66   1.916       .  S
O61          C70   1.268       .  A
O62          V66   1.917       .  S
O62          C69   1.270       .  A
O63          V66   1.891       .  S
O63          C68   1.261       .  A
O64          V66   1.889       .  S
O64          C67   1.262       .  A
V65          V66   2.085       .  T
C67         C637   1.480       .  S
C68         C690   1.480       .  S
C69         C738   1.496       .  S
C70         C661   1.483       .  S
O71          V79   1.914       .  S
O71          C81   1.267       .  A
O72          V79   1.915       .  S
O72          C82   1.269       .  A
O73          V79   1.894       .  S
O73          C83   1.262       .  A
O74          V79   1.893       .  S
O74          C84   1.263       .  A
O75          V80   1.918       .  S
O75          C84   1.268       .  A
O76          V80   1.921       .  S
O76          C83   1.271       .  A
O77          V80   1.886       .  S
O77          C82   1.261       .  A
O78          V80   1.889       .  S
O78          C81   1.263       .  A
V79          V80   2.084       .  T
C81         C589   1.483       .  S
C82         C685   1.483       .  S
C83         C786   1.501       .  S
C84         C618   1.484       .  S
O85          V93   1.921       .  S
O85          C95   1.269       .  A
O86          V93   1.913       .  S
O86          C96   1.267       .  A
O87          V93   1.887       .  S
O87          C97   1.262       .  A
O88          V93   1.893       .  S
O88          C98   1.262       .  A
O89          V94   1.911       .  S
O89          C98   1.267       .  A
O90          V94   1.916       .  S
O90          C97   1.268       .  A
O91          V94   1.884       .  S
O91          C96   1.260       .  A
O92          V94   1.882       .  S
O92          C95   1.262       .  A
V93          V94   2.087       .  T
C95         C541   1.488       .  S
C96         C565   1.471       .  S
C97         C666   1.482       .  S
C98         C858   1.483       .  S
O99         V107   1.915       .  S
O99         C109   1.266       .  A
O100        V107   1.907       .  S
O100        C110   1.267       .  A
O101        V107   1.899       .  S
O101        C111   1.264       .  A
O102        V107   1.905       .  S
O102        C112   1.266       .  A
O103        V108   1.913       .  S
O103        C112   1.268       .  A
O104        V108   1.915       .  S
O104        C111   1.267       .  A
O105        V108   1.890       .  S
O105        C110   1.262       .  A
O106        V108   1.886       .  S
O106        C109   1.260       .  A
V107        V108   2.086       .  T
C109        C517   1.471       .  S
C110        C570   1.487       .  S
C111        C613   1.485       .  S
C112        C925   1.494       .  S
O113        V121   1.917       .  S
O113        C123   1.269       .  A
O114        V121   1.912       .  S
O114        C124   1.268       .  A
O115        V121   1.893       .  S
O115        C125   1.262       .  A
O116        V121   1.888       .  S
O116        C126   1.262       .  A
O117        V122   1.923       .  S
O117        C126   1.270       .  A
O118        V122   1.921       .  S
O118        C125   1.271       .  A
O119        V122   1.881       .  S
O119        C124   1.259       .  A
O120        V122   1.887       .  S
O120        C123   1.261       .  A
V121        V122   2.082       .  T
C123        C906   1.481       .  S
C124        C493   1.472       .  S
C125        C445   1.500       .  S
C126        C474   1.487       .  S
O127        V135   1.908       .  S
O127        C137   1.266       .  A
O128        V135   1.909       .  S
O128        C138   1.267       .  A
O129        V135   1.895       .  S
O129        C139   1.264       .  A
O130        V135   1.892       .  S
O130        C140   1.264       .  A
O131        V136   1.917       .  S
O131        C140   1.269       .  A
O132        V136   1.916       .  S
O132        C139   1.269       .  A
O133        V136   1.885       .  S
O133        C138   1.261       .  A
O134        V136   1.886       .  S
O134        C137   1.261       .  A
V135        V136   2.083       .  T
C137        C834   1.476       .  S
C138        C498   1.476       .  S
C139        C397   1.493       .  S
C140        C421   1.496       .  S
O141        V149   1.915       .  S
O141        C151   1.267       .  A
O142        V149   1.913       .  S
O142        C152   1.269       .  A
O143        V149   1.893       .  S
O143        C153   1.264       .  A
O144        V149   1.894       .  S
O144        C154   1.263       .  A
O145        V150   1.916       .  S
O145        C154   1.269       .  A
O146        V150   1.915       .  S
O146        C153   1.268       .  A
O147        V150   1.887       .  S
O147        C152   1.261       .  A
O148        V150   1.888       .  S
O148        C151   1.262       .  A
V149        V150   2.085       .  T
C151        C762   1.479       .  S
C152        C378   1.486       .  S
C153        C469   1.489       .  S
C154        C349   1.492       .  S
O155        V163   1.906       .  S
O155        C165   1.265       .  A
O156        V163   1.909       .  S
O156        C166   1.268       .  A
O157        V163   1.893       .  S
O157        C167   1.262       .  A
O158        V163   1.890       .  S
O158        C168   1.263       .  A
O159        V164   1.917       .  S
O159        C168   1.269       .  A
O160        V164   1.915       .  S
O160        C167   1.267       .  A
O161        V164   1.891       .  S
O161        C166   1.262       .  A
O162        V164   1.891       .  S
O162        C165   1.263       .  A
V163        V164   2.085       .  T
C165        C714   1.473       .  S
C166        C373   1.491       .  S
C167        C426   1.480       .  S
C168        C325   1.489       .  S
O169        V177   1.912       .  S
O169        C179   1.267       .  A
O170        V177   1.909       .  S
O170        C180   1.267       .  A
O171        V177   1.884       .  S
O171        C181   1.263       .  A
O172        V177   1.892       .  S
O172        C182   1.262       .  A
O173        V178   1.916       .  S
O173        C182   1.270       .  A
O174        V178   1.924       .  S
O174        C181   1.270       .  A
O175        V178   1.886       .  S
O175        C180   1.261       .  A
O176        V178   1.889       .  S
O176        C179   1.262       .  A
V177        V178   2.084       .  T
C179        C594   1.477       .  S
C180        C301   1.482       .  S
C181        C277   1.495       .  S
C182        C330   1.497       .  S
O183        V191   1.911       .  S
O183        C193   1.265       .  A
O184        V191   1.905       .  S
O184        C194   1.266       .  A
O185        V191   1.892       .  S
O185        C195   1.263       .  A
O186        V191   1.895       .  S
O186        C196   1.264       .  A
O187        V192   1.914       .  S
O187        C196   1.269       .  A
O188        V192   1.915       .  S
O188        C195   1.267       .  A
O189        V192   1.891       .  S
O189        C194   1.263       .  A
O190        V192   1.889       .  S
O190        C193   1.261       .  A
V191        V192   2.085       .  T
C193        C642   1.471       .  S
C194        C306   1.490       .  S
C195        C253   1.484       .  S
C196        C354   1.497       .  S
O197        V205   1.912       .  S
O197        C207   1.267       .  A
O198        V205   1.907       .  S
O198        C208   1.265       .  A
O199        V205   1.899       .  S
O199        C209   1.265       .  A
O200        V205   1.897       .  S
O200        C210   1.264       .  A
O201        V206   1.914       .  S
O201        C210   1.266       .  A
O202        V206   1.913       .  S
O202        C209   1.268       .  A
O203        V206   1.888       .  S
O203        C208   1.261       .  A
O204        V206   1.888       .  S
O204        C207   1.262       .  A
V205        V206   2.084       .  T
C207        C522   1.485       .  S
C208        C229   1.471       .  S
C209        C402   1.497       .  S
C210        C282   1.484       .  S
O211        V219   1.914       .  S
O211        C221   1.266       .  A
O212        V219   1.913       .  S
O212        C222   1.269       .  A
O213        V219   1.895       .  S
O213        C223   1.263       .  A
O214        V219   1.891       .  S
O214        C224   1.262       .  A
O215        V220   1.919       .  S
O215        C224   1.269       .  A
O216        V220   1.917       .  S
O216        C223   1.269       .  A
O217        V220   1.885       .  S
O217        C222   1.260       .  A
O218        V220   1.888       .  S
O218        C221   1.261       .  A
V219        V220   2.086       .  T
C221        C546   1.474       .  S
C222        C234   1.485       .  S
C223        C450   1.493       .  S
C224        C258   1.485       .  S
C225        C226   1.414       .  A
C225        C230   1.403       .  A
C225        C239   1.444       .  S
C226        C231   1.487       .  S
C226        C227   1.403       .  A
C227        C228   1.396       .  A
C227        H246   1.085       .  S
C228        C229   1.410       .  A
C228        C240   1.445       .  S
C229        C230   1.402       .  A
C230        H245   1.085       .  S
C231        C232   1.401       .  A
C231        C236   1.413       .  A
C232        C233   1.400       .  A
C232        H247   1.085       .  S
C233        C234   1.419   1_655  A
C233        C237   1.445   1_655  S
C234        C235   1.404       .  A
C235        C236   1.401   1_455  A
C235        H248   1.085       .  S
C236        C238   1.444       .  S
C237        N241   1.157       .  T
C238        N242   1.157       .  T
C239        N244   1.157       .  T
C240        N243   1.157       .  T
C249        C250   1.411       .  A
C249        C254   1.408       .  A
C249        C263   1.443       .  S
C250        C255   1.486       .  S
C250        C251   1.400       .  A
C251        C252   1.399       .  A
C251        H270   1.085       .  S
C252        C253   1.415       .  A
C252        C264   1.445       .  S
C253        C254   1.407       .  A
C254        H269   1.084       .  S
C255        C256   1.400       .  A
C255        C260   1.411       .  A
C256        C257   1.398       .  A
C256        H271   1.085       .  S
C257        C258   1.415       .  A
C257        C261   1.445       .  S
C258        C259   1.407       .  A
C259        C260   1.408       .  A
C259        H272   1.085       .  S
C260        C262   1.443       .  S
C261        N265   1.157       .  T
C262        N266   1.157       .  T
C263        N268   1.157       .  T
C264        N267   1.157       .  T
C273        C274   1.410       .  A
C273        C278   1.394       .  A
C273        C287   1.445       .  S
C274        C279   1.494       .  S
C274        C275   1.408       .  A
C275        C276   1.413       .  A
C275        H294   1.084       .  S
C276        C277   1.418       .  A
C276        C288   1.443       .  S
C277        C278   1.407       .  A
C278        H293   1.085       .  S
C279        C280   1.404       .  A
C279        C284   1.413       .  A
C280        C281   1.398       .  A
C280        H295   1.085       .  S
C281        C282   1.412       .  A
C281        C285   1.445       .  S
C282        C283   1.406       .  A
C283        C284   1.409       .  A
C283        H296   1.084       .  S
C284        C286   1.443       .  S
C285        N289   1.157       .  T
C286        N290   1.157       .  T
C287        N292   1.157       .  T
C288        N291   1.157       .  T
C297        C298   1.409       .  A
C297        C302   1.397       .  A
C297        C311   1.445       .  S
C298        C303   1.486       .  S
C298        C299   1.405       .  A
C299        C300   1.403       .  A
C299        H318   1.085       .  S
C300        C301   1.413       .  A
C300        C312   1.443       .  S
C301        C302   1.406       .  A
C302        H317   1.085       .  S
C303        C304   1.403       .  A
C303        C308   1.408       .  A
C304        C305   1.401   1_655  A
C304        H319   1.085       .  S
C305        C306   1.417       .  A
C305        C309   1.444       .  S
C306        C307   1.410       .  A
C307        C308   1.399   1_455  A
C307        H320   1.084       .  S
C308        C310   1.445       .  S
C309        N313   1.157       .  T
C310        N314   1.157       .  T
C311        N316   1.157       .  T
C312        N315   1.157       .  T
C321        C322   1.409       .  A
C321        C326   1.399       .  A
C321        C335   1.444       .  S
C322        C327   1.490       .  S
C322        C323   1.405       .  A
C323        C324   1.407       .  A
C323        H342   1.085       .  S
C324        C325   1.415       .  A
C324        C336   1.443       .  S
C325        C326   1.407       .  A
C326        H341   1.085       .  S
C327        C328   1.399       .  A
C327        C332   1.411       .  A
C328        C329   1.403       .  A
C328        H343   1.085       .  S
C329        C330   1.423       .  A
C329        C333   1.444       .  S
C330        C331   1.408       .  A
C331        C332   1.403       .  A
C331        H344   1.084       .  S
C332        C334   1.444       .  S
C333        N337   1.157       .  T
C334        N338   1.157       .  T
C335        N340   1.157       .  T
C336        N339   1.157       .  T
C345        C346   1.411       .  A
C345        C350   1.405       .  A
C345        C359   1.443       .  S
C346        C351   1.490       .  S
C346        C347   1.400       .  A
C347        C348   1.402       .  A
C347        H366   1.085       .  S
C348        C349   1.418       .  A
C348        C360   1.444       .  S
C349        C350   1.407       .  A
C350        H365   1.084       .  S
C351        C352   1.403       .  A
C351        C356   1.407       .  A
C352        C353   1.406       .  A
C352        H367   1.085       .  S
C353        C354   1.418       .  A
C353        C357   1.443       .  S
C354        C355   1.410       .  A
C355        C356   1.402       .  A
C355        H368   1.084       .  S
C356        C358   1.444       .  S
C357        N361   1.157       .  T
C358        N362   1.157       .  T
C359        N364   1.157       .  T
C360        N363   1.157       .  T
C369        C370   1.410       .  A
C369        C374   1.402       .  A
C369        C383   1.444       .  S
C370        C375   1.486       .  S
C370        C371   1.400       .  A
C371        C372   1.400       .  A
C371        H390   1.085       .  S
C372        C373   1.421       .  A
C372        C384   1.445       .  S
C373        C374   1.407       .  A
C374        H389   1.084       .  S
C375        C376   1.400       .  A
C375        C380   1.411       .  A
C376        C377   1.399   1_655  A
C376        H391   1.085       .  S
C377        C378   1.418       .  A
C377        C381   1.445       .  S
C378        C379   1.405       .  A
C379        C380   1.403   1_455  A
C379        H392   1.084       .  S
C380        C382   1.443       .  S
C381        N385   1.157       .  T
C382        N386   1.157       .  T
C383        N388   1.157       .  T
C384        N387   1.157       .  T
C393        C394   1.411       .  A
C393        C398   1.402       .  A
C393        C407   1.444       .  S
C394        C399   1.497       .  S
C394        C395   1.407       .  A
C395        C396   1.406       .  A
C395        H414   1.085       .  S
C396        C397   1.415       .  A
C396        C408   1.443       .  S
C397        C398   1.408       .  A
C398        H413   1.085       .  S
C399        C400   1.406       .  A
C399        C404   1.411       .  A
C400        C401   1.406       .  A
C400        H415   1.085       .  S
C401        C402   1.417       .  A
C401        C405   1.443       .  S
C402        C403   1.409       .  A
C403        C404   1.402       .  A
C403        H416   1.084       .  S
C404        C406   1.444       .  S
C405        N409   1.157       .  T
C406        N410   1.157       .  T
C407        N412   1.157       .  T
C408        N411   1.157       .  T
C417        C418   1.408       .  A
C417        C422   1.398       .  A
C417        C431   1.445       .  S
C418        C423   1.489       .  S
C418        C419   1.404       .  A
C419        C420   1.409       .  A
C419        H438   1.084       .  S
C420        C421   1.419       .  A
C420        C432   1.443       .  S
C421        C422   1.409       .  A
C422        H437   1.084       .  S
C423        C424   1.402   1_554  A
C423        C428   1.412   1_554  A
C424        C425   1.400       .  A
C424        H439   1.085       .  S
C425        C426   1.413       .  A
C425        C429   1.445       .  S
C426        C427   1.404       .  A
C427        C428   1.407       .  A
C427        H440   1.084       .  S
C428        C430   1.443   1_556  S
C429        N433   1.157       .  T
C430        N434   1.157       .  T
C431        N436   1.157       .  T
C432        N435   1.157       .  T
C441        C442   1.414       .  A
C441        C446   1.407       .  A
C441        C455   1.443       .  S
C442        C447   1.499       .  S
C442        C443   1.401       .  A
C443        C444   1.403       .  A
C443        H462   1.085       .  S
C444        C445   1.422       .  A
C444        C456   1.445       .  S
C445        C446   1.408       .  A
C446        H461   1.084       .  S
C447        C448   1.403       .  A
C447        C452   1.415       .  A
C448        C449   1.402       .  A
C448        H463   1.085       .  S
C449        C450   1.418       .  A
C449        C453   1.444       .  S
C450        C451   1.406       .  A
C451        C452   1.407       .  A
C451        H464   1.084       .  S
C452        C454   1.444       .  S
C453        N457   1.157       .  T
C454        N458   1.157       .  T
C455        N460   1.157       .  T
C456        N459   1.157       .  T
C465        C466   1.408       .  A
C465        C470   1.398       .  A
C465        C479   1.444   1_556  S
C466        C471   1.488   1_556  S
C466        C467   1.405       .  A
C467        C468   1.409       .  A
C467        H486   1.084       .  S
C468        C469   1.416       .  A
C468        C480   1.443       .  S
C469        C470   1.406       .  A
C470        H485   1.085       .  S
C471        C472   1.400       .  A
C471        C476   1.411       .  A
C472        C473   1.399       .  A
C472        H487   1.085       .  S
C473        C474   1.417       .  A
C473        C477   1.446       .  S
C474        C475   1.406       .  A
C475        C476   1.409       .  A
C475        H488   1.084       .  S
C476        C478   1.442       .  S
C477        N481   1.157       .  T
C478        N482   1.157       .  T
C479        N484   1.157       .  T
C480        N483   1.157       .  T
C489        C490   1.412       .  A
C489        C494   1.401   1_655  A
C489        C503   1.444       .  S
C490        C495   1.481       .  S
C490        C491   1.400       .  A
C491        C492   1.397   1_655  A
C491        H510   1.085       .  S
C492        C493   1.414       .  A
C492        C504   1.445       .  S
C493        C494   1.401       .  A
C494        H509   1.085       .  S
C495        C496   1.400       .  A
C495        C500   1.412       .  A
C496        C497   1.397       .  A
C496        H511   1.085       .  S
C497        C498   1.414       .  A
C497        C501   1.445       .  S
C498        C499   1.403       .  A
C499        C500   1.401       .  A
C499        H512   1.085       .  S
C500        C502   1.444       .  S
C501        N505   1.157       .  T
C502        N506   1.157       .  T
C503        N508   1.157       .  T
C504        N507   1.157       .  T
C513        C514   1.413       .  A
C513        C518   1.402       .  A
C513        C527   1.444       .  S
C514        C519   1.489       .  S
C514        C515   1.406       .  A
C515        C516   1.401       .  A
C515        H534   1.085       .  S
C516        C517   1.407       .  A
C516        C528   1.444       .  S
C517        C518   1.403       .  A
C518        H533   1.085       .  S
C519        C520   1.402       .  A
C519        C524   1.411       .  A
C520        C521   1.395       .  A
C520        H535   1.085       .  S
C521        C522   1.415       .  A
C521        C525   1.445       .  S
C522        C523   1.408       .  A
C523        C524   1.407       .  A
C523        H536   1.084       .  S
C524        C526   1.443       .  S
C525        N529   1.157       .  T
C526        N530   1.157       .  T
C527        N532   1.157       .  T
C528        N531   1.157       .  T
C537        C538   1.407       .  A
C537        C542   1.394       .  A
C537        C551   1.445       .  S
C538        C543   1.485       .  S
C538        C539   1.405       .  A
C539        C540   1.410       .  A
C539        H558   1.084       .  S
C540        C541   1.415       .  A
C540        C552   1.442       .  S
C541        C542   1.407       .  A
C542        H557   1.085       .  S
C543        C544   1.402       .  A
C543        C548   1.411       .  A
C544        C545   1.400       .  A
C544        H559   1.085       .  S
C545        C546   1.410       .  A
C545        C549   1.445       .  S
C546        C547   1.403       .  A
C547        C548   1.404       .  A
C547        H560   1.084       .  S
C548        C550   1.443       .  S
C549        N553   1.157       .  T
C550        N554   1.157       .  T
C551        N556   1.157       .  T
C552        N555   1.157       .  T
C561        C562   1.412       .  A
C561        C566   1.402       .  A
C561        C575   1.443       .  S
C562        C567   1.483       .  S
C562        C563   1.401       .  A
C563        C564   1.399       .  A
C563        H582   1.085       .  S
C564        C565   1.412       .  A
C564        C576   1.445       .  S
C565        C566   1.401       .  A
C566        H581   1.084       .  S
C567        C568   1.399       .  A
C567        C572   1.410       .  A
C568        C569   1.400   1_565  A
C568        H583   1.085       .  S
C569        C570   1.419       .  A
C569        C573   1.444       .  S
C570        C571   1.406       .  A
C571        C572   1.401   1_545  A
C571        H584   1.084       .  S
C572        C574   1.444       .  S
C573        N577   1.157       .  T
C574        N578   1.157       .  T
C575        N580   1.157       .  T
C576        N579   1.157       .  T
C585        C586   1.409       .  A
C585        C590   1.395       .  A
C585        C599   1.446       .  S
C586        C591   1.484       .  S
C586        C587   1.404       .  A
C587        C588   1.409       .  A
C587        H606   1.084       .  S
C588        C589   1.414       .  A
C588        C600   1.443       .  S
C589        C590   1.404       .  A
C590        H605   1.085       .  S
C591        C592   1.404       .  A
C591        C596   1.409       .  A
C592        C593   1.404       .  A
C592        H607   1.085       .  S
C593        C594   1.412       .  A
C593        C597   1.444       .  S
C594        C595   1.404       .  A
C595        C596   1.400       .  A
C595        H608   1.085       .  S
C596        C598   1.444       .  S
C597        N601   1.157       .  T
C598        N602   1.157       .  T
C599        N604   1.157       .  T
C600        N603   1.157       .  T
C609        C610   1.412       .  A
C609        C614   1.406       .  A
C609        C623   1.443       .  S
C610        C615   1.493       .  S
C610        C611   1.404       .  A
C611        C612   1.404       .  A
C611        H630   1.085       .  S
C612        C613   1.413       .  A
C612        C624   1.445       .  S
C613        C614   1.405       .  A
C614        H629   1.085       .  S
C615        C616   1.403       .  A
C615        C620   1.413       .  A
C616        C617   1.401       .  A
C616        H631   1.085       .  S
C617        C618   1.412       .  A
C617        C621   1.445       .  S
C618        C619   1.405       .  A
C619        C620   1.407       .  A
C619        H632   1.084       .  S
C620        C622   1.443       .  S
C621        N625   1.157       .  T
C622        N626   1.157       .  T
C623        N628   1.157       .  T
C624        N627   1.157       .  T
C633        C634   1.412       .  A
C633        C638   1.405       .  A
C633        C647   1.443       .  S
C634        C639   1.487       .  S
C634        C635   1.401       .  A
C635        C636   1.398       .  A
C635        H654   1.085       .  S
C636        C637   1.413       .  A
C636        C648   1.445       .  S
C637        C638   1.405       .  A
C638        H653   1.084       .  S
C639        C640   1.407       .  A
C639        C644   1.412       .  A
C640        C641   1.405       .  A
C640        H655   1.084       .  S
C641        C642   1.408       .  A
C641        C645   1.443       .  S
C642        C643   1.400       .  A
C643        C644   1.397       .  A
C643        H656   1.086       .  S
C644        C646   1.445       .  S
C645        N649   1.157       .  T
C646        N650   1.157       .  T
C647        N652   1.157       .  T
C648        N651   1.157       .  T
C657        C658   1.410       .  A
C657        C662   1.405       .  A
C657        C671   1.443       .  S
C658        C663   1.485       .  S
C658        C659   1.401       .  A
C659        C660   1.399       .  A
C659        H678   1.085       .  S
C660        C661   1.414       .  A
C660        C672   1.445       .  S
C661        C662   1.405       .  A
C662        H677   1.083       .  S
C663        C664   1.400       .  A
C663        C668   1.411       .  A
C664        C665   1.398       .  A
C664        H679   1.085       .  S
C665        C666   1.414       .  A
C665        C669   1.445       .  S
C666        C667   1.406       .  A
C667        C668   1.407       .  A
C667        H680   1.084       .  S
C668        C670   1.443       .  S
C669        N673   1.157       .  T
C670        N674   1.157       .  T
C671        N676   1.157       .  T
C672        N675   1.157       .  T
C681        C682   1.416   1_545  A
C681        C686   1.404       .  A
C681        C695   1.444   1_545  S
C682        C687   1.494       .  S
C682        C683   1.402       .  A
C683        C684   1.400   1_565  A
C683        H702   1.085       .  S
C684        C685   1.416       .  A
C684        C696   1.445       .  S
C685        C686   1.403       .  A
C686        H701   1.085       .  S
C687        C688   1.403       .  A
C687        C692   1.416       .  A
C688        C689   1.400       .  A
C688        H703   1.085       .  S
C689        C690   1.412       .  A
C689        C693   1.443       .  S
C690        C691   1.402       .  A
C691        C692   1.404       .  A
C691        H704   1.085       .  S
C692        C694   1.444       .  S
C693        N697   1.157       .  T
C694        N698   1.157       .  T
C695        N700   1.157       .  T
C696        N699   1.157       .  T
C705        C706   1.411       .  A
C705        C710   1.398       .  A
C705        C719   1.445       .  S
C706        C711   1.484       .  S
C706        C707   1.405       .  A
C707        C708   1.404       .  A
C707        H726   1.085       .  S
C708        C709   1.411       .  A
C708        C720   1.443       .  S
C709        C710   1.404       .  A
C710        H725   1.085       .  S
C711        C712   1.402       .  A
C711        C716   1.412       .  A
C712        C713   1.396       .  A
C712        H727   1.085       .  S
C713        C714   1.411       .  A
C713        C717   1.445       .  S
C714        C715   1.404       .  A
C715        C716   1.404       .  A
C715        H728   1.085       .  S
C716        C718   1.443       .  S
C717        N721   1.157       .  T
C718        N722   1.157       .  T
C719        N724   1.157       .  T
C720        N723   1.157       .  T
C729        C730   1.410       .  A
C729        C734   1.403       .  A
C729        C743   1.444       .  S
C730        C735   1.486       .  S
C730        C731   1.400       .  A
C731        C732   1.402       .  A
C731        H750   1.085       .  S
C732        C733   1.419       .  A
C732        C744   1.445       .  S
C733        C734   1.406       .  A
C734        H749   1.084       .  S
C735        C736   1.397       .  A
C735        C740   1.410       .  A
C736        C737   1.399       .  A
C736        H751   1.085       .  S
C737        C738   1.423       .  A
C737        C741   1.444       .  S
C738        C739   1.409       .  A
C739        C740   1.406       .  A
C739        H752   1.084       .  S
C740        C742   1.443       .  S
C741        N745   1.157       .  T
C742        N746   1.157       .  T
C743        N748   1.157       .  T
C744        N747   1.157       .  T
C753        C754   1.411       .  A
C753        C758   1.399       .  A
C753        C767   1.444       .  S
C754        C759   1.485       .  S
C754        C755   1.405       .  A
C755        C756   1.405       .  A
C755        H774   1.084       .  S
C756        C757   1.412       .  A
C756        C768   1.444       .  S
C757        C758   1.403       .  A
C758        H773   1.085       .  S
C759        C760   1.400       .  A
C759        C764   1.412       .  A
C760        C761   1.396       .  A
C760        H775   1.085       .  S
C761        C762   1.413       .  A
C761        C765   1.446       .  S
C762        C763   1.405       .  A
C763        C764   1.408       .  A
C763        H776   1.084       .  S
C764        C766   1.443       .  S
C765        N769   1.157       .  T
C766        N770   1.157       .  T
C767        N772   1.157       .  T
C768        N771   1.157       .  T
C777        C778   1.415       .  A
C777        C782   1.407       .  A
C777        C791   1.444       .  S
C778        C783   1.500       .  S
C778        C779   1.404       .  A
C779        C780   1.404       .  A
C779        H798   1.085       .  S
C780        C781   1.417       .  A
C780        C792   1.444       .  S
C781        C782   1.407       .  A
C782        H797   1.084       .  S
C783        C784   1.402       .  A
C783        C788   1.414       .  A
C784        C785   1.404       .  A
C784        H799   1.085       .  S
C785        C786   1.423       .  A
C785        C789   1.444       .  S
C786        C787   1.408       .  A
C787        C788   1.406       .  A
C787        H800   1.084       .  S
C788        C790   1.444       .  S
C789        N793   1.157       .  T
C790        N794   1.157       .  T
C791        N796   1.157       .  T
C792        N795   1.157       .  T
C801        C802   1.415   1_545  A
C801        C806   1.403       .  A
C801        C815   1.444   1_545  S
C802        C807   1.490       .  S
C802        C803   1.403       .  A
C803        C804   1.399   1_565  A
C803        H822   1.085       .  S
C804        C805   1.414       .  A
C804        C816   1.445       .  S
C805        C806   1.403       .  A
C806        H821   1.085       .  S
C807        C808   1.402       .  A
C807        C812   1.415       .  A
C808        C809   1.399       .  A
C808        H823   1.085       .  S
C809        C810   1.416       .  A
C809        C813   1.445       .  S
C810        C811   1.403       .  A
C811        C812   1.403       .  A
C811        H824   1.085       .  S
C812        C814   1.444       .  S
C813        N817   1.157       .  T
C814        N818   1.157       .  T
C815        N820   1.157       .  T
C816        N819   1.157       .  T
C825        C826   1.411       .  A
C825        C830   1.396       .  A
C825        C839   1.446       .  S
C826        C831   1.482       .  S
C826        C827   1.405       .  A
C827        C828   1.405       .  A
C827        H846   1.084       .  S
C828        C829   1.411       .  A
C828        C840   1.444       .  S
C829        C830   1.402       .  A
C830        H845   1.085       .  S
C831        C832   1.401       .  A
C831        C836   1.410       .  A
C832        C833   1.398       .  A
C832        H847   1.085       .  S
C833        C834   1.413       .  A
C833        C837   1.445       .  S
C834        C835   1.404       .  A
C835        C836   1.402       .  A
C835        H848   1.085       .  S
C836        C838   1.443       .  S
C837        N841   1.157       .  T
C838        N842   1.157       .  T
C839        N844   1.157       .  T
C840        N843   1.157       .  T
C849        C850   1.416       .  A
C849        C854   1.405       .  A
C849        C863   1.443       .  S
C850        C855   1.492       .  S
C850        C851   1.403       .  A
C851        C852   1.398       .  A
C851        H870   1.085       .  S
C852        C853   1.412       .  A
C852        C864   1.446       .  S
C853        C854   1.401       .  A
C854        H869   1.085       .  S
C855        C856   1.402       .  A
C855        C860   1.415       .  A
C856        C857   1.400       .  A
C856        H871   1.085       .  S
C857        C858   1.416       .  A
C857        C861   1.445       .  S
C858        C859   1.403       .  A
C859        C860   1.403       .  A
C859        H872   1.084       .  S
C860        C862   1.444       .  S
C861        N865   1.157       .  T
C862        N866   1.157       .  T
C863        N868   1.157       .  T
C864        N867   1.157       .  T
C873        C874   1.408       .  A
C873        C878   1.397       .  A
C873        C887   1.445       .  S
C874        C879   1.484   1_556  S
C874        C875   1.404       .  A
C875        C876   1.406       .  A
C875        H894   1.084       .  S
C876        C877   1.414       .  A
C876        C888   1.443       .  S
C877        C878   1.406       .  A
C878        H893   1.085       .  S
C879        C880   1.400       .  A
C879        C884   1.410       .  A
C880        C881   1.398       .  A
C880        H895   1.085       .  S
C881        C882   1.415       .  A
C881        C885   1.445       .  S
C882        C883   1.406       .  A
C883        C884   1.406       .  A
C883        H896   1.084       .  S
C884        C886   1.443       .  S
C885        N889   1.157       .  T
C886        N890   1.157       .  T
C887        N892   1.157   1_556  T
C888        N891   1.157       .  T
C897        C898   1.412       .  A
C897        C902   1.407       .  A
C897        C911   1.442       .  S
C898        C903   1.488       .  S
C898        C899   1.401       .  A
C899        C900   1.398       .  A
C899        H918   1.085       .  S
C900        C901   1.414       .  A
C900        C912   1.446       .  S
C901        C902   1.404       .  A
C902        H917   1.084       .  S
C903        C904   1.405       .  A
C903        C908   1.411       .  A
C904        C905   1.406       .  A
C904        H919   1.084       .  S
C905        C906   1.412       .  A
C905        C909   1.444       .  S
C906        C907   1.404       .  A
C907        C908   1.400       .  A
C907        H920   1.085       .  S
C908        C910   1.445       .  S
C909        N913   1.157       .  T
C910        N914   1.157       .  T
C911        N916   1.157       .  T
C912        N915   1.157       .  T
C921        C922   1.414       .  A
C921        C926   1.406       .  A
C921        C935   1.444       .  S
C922        C927   1.504       .  S
C922        C923   1.409       .  A
C923        C924   1.407       .  A
C923        H942   1.084       .  S
C924        C925   1.414       .  A
C924        C936   1.443       .  S
C925        C926   1.407       .  A
C926        H941   1.085       .  S
C927        C928   1.410       .  A
C927        C932   1.414       .  A
C928        C929   1.409       .  A
C928        H943   1.084       .  S
C929        C930   1.412       .  A
C929        C933   1.443       .  S
C930        C931   1.405       .  A
C931        C932   1.404       .  A
C931        H944   1.085       .  S
C932        C934   1.444       .  S
C933        N937   1.157       .  T
C934        N938   1.157       .  T
C935        N940   1.157       .  T
C936        N939   1.157       .  T
C945        C946   1.412       .  A
C945        C950   1.409       .  A
C945        C959   1.443       .  S
C946        C951   1.491   1_554  S
C946        C947   1.401       .  A
C947        C948   1.402       .  A
C947        H966   1.085       .  S
C948        C949   1.415       .  A
C948        C960   1.445       .  S
C949        C950   1.406       .  A
C950        H965   1.084       .  S
C951        C952   1.405       .  A
C951        C956   1.408       .  A
C952        C953   1.410       .  A
C952        H967   1.084       .  S
C953        C954   1.417       .  A
C953        C957   1.443       .  S
C954        C955   1.407       .  A
C955        C956   1.400       .  A
C955        H968   1.085       .  S
C956        C958   1.444       .  S
C957        N961   1.157       .  T
C958        N962   1.157   1_556  T
C959        N964   1.157       .  T
C960        N963   1.157       .  T
C969        C970   1.410   1_545  A
C969        C974   1.402       .  A
C969        C983   1.444   1_545  S
C970        C975   1.481       .  S
C970        C971   1.398       .  A
C971        C972   1.398   1_565  A
C971        H990   1.085       .  S
C972        C973   1.419       .  A
C972        C984   1.445       .  S
C973        C974   1.405       .  A
C974        H989   1.084       .  S
C975        C976   1.398       .  A
C975        C980   1.409       .  A
C976        C977   1.398       .  A
C976        H991   1.085       .  S
C977        C978   1.420       .  A
C977        C981   1.445       .  S
C978        C979   1.406       .  A
C979        C980   1.402       .  A
C979        H992   1.084       .  S
C980        C982   1.443       .  S
C981        N985   1.157       .  T
C982        N986   1.157       .  T
C983        N988   1.157       .  T
C984        N987   1.157       .  T
