geometry optimzed in LAMMPS
_audit_creation_date              2020-12-01 
_audit_creation_method            'lammps2cif' 
_symmetry_space_group_name_H-M    'P1' 
_symmetry_Int_Tables_number       1 
_symmetry_cell_setting            triclinic 
loop_ 
_symmetry_equiv_pos_as_xyz 
  x,y,z 
_cell_length_a                    50.44402566 
_cell_length_b                    56.00181976193129 
_cell_length_c                    53.22540890251629 
_cell_angle_alpha                 89.90919792614997 
_cell_angle_beta                  90.09864675585011 
_cell_angle_gamma                 90.26758311992916 
loop_ 
_atom_site_label 
_atom_site_type_symbol 
_atom_site_fract_x 
_atom_site_fract_y 
_atom_site_fract_z 
_atom_site_charge 
C1          C  0.09252478  0.66644876  0.93455163     0.80600
N2          N  0.07421595  0.65656721  0.95010547    -0.77700
C3          C  0.04907579  0.65200900  0.94187661     0.83000
N4          N  0.04201588  0.65853957  0.91785381    -0.77700
C5          C  0.06028173  0.66930886  0.90232696     0.83100
N6          N  0.08516432  0.67287741  0.91118713    -0.79400
C7          C  0.87261037  0.67484445  0.93002555     0.80600
N8          N  0.88908482  0.66296583  0.94589330    -0.77700
C9          C  0.91278830  0.65403074  0.93782638     0.83000
N10         N  0.92025445  0.65751331  0.91328825    -0.77700
C11         C  0.90346431  0.66925327  0.89721844     0.83100
N12         N  0.88022527  0.67771224  0.90593780    -0.79400
C13         C  0.90302322  0.68321823  0.13907682     0.80600
N14         N  0.91934592  0.66926919  0.12496119    -0.77700
C15         C  0.90929543  0.65754779  0.10451851     0.83000
N16         N  0.88325615  0.66045089  0.09812837    -0.77700
C17         C  0.86691211  0.67357835  0.11288139     0.83100
N18         N  0.87711007  0.68498814  0.13297001    -0.79400
C19         C  0.03809909  0.67737604  0.15193789     0.80600
N20         N  0.02521953  0.66274293  0.13528129    -0.77700
C21         C  0.03481698  0.66046413  0.11129957     0.83000
N22         N  0.05708883  0.67289007  0.10453071    -0.77700
C23         C  0.07002904  0.68710344  0.12132621     0.83100
N24         N  0.06007848  0.68930749  0.14465356    -0.79400
C25         C  0.89885883  0.53131876  0.14831792     0.80600
N26         N  0.91591856  0.54273181  0.13210315    -0.77700
C27         C  0.90779456  0.54812311  0.10806530     0.83000
N28         N  0.88288461  0.54144279  0.10055447    -0.77700
C29         C  0.86584760  0.53044589  0.11676535     0.83100
N30         N  0.87424377  0.52537235  0.14028845    -0.79400
C31         C  0.88400650  0.51448885  0.93382059     0.80600
N32         N  0.88727747  0.51658827  0.90875619    -0.77700
C33         C  0.90511600  0.53186134  0.89853535     0.83000
N34         N  0.92051440  0.54577878  0.91399674    -0.77700
C35         C  0.91717008  0.54419446  0.93952538     0.83100
N36         N  0.89903039  0.52845780  0.94900829    -0.79400
C37         C  0.09086418  0.53209646  0.93566787     0.80600
N38         N  0.07405545  0.54358320  0.95159491    -0.77700
C39         C  0.04913861  0.54988846  0.94390172     0.83000
N40         N  0.04072571  0.54340724  0.92046453    -0.77700
C41         C  0.05729442  0.53123381  0.90480337     0.83100
N42         N  0.08209759  0.52588481  0.91258786    -0.79400
C43         C  0.04061461  0.52275224  0.14893086     0.80600
N44         N  0.05561822  0.50609023  0.13739091    -0.77700
C45         C  0.05848326  0.50553220  0.11230062     0.83000
N46         N  0.04586109  0.52209131  0.09829662    -0.77700
C47         C  0.03042697  0.53917982  0.10906692     0.83100
N48         N  0.02755649  0.53953397  0.13473312    -0.79400
O49         O  0.03487915  0.64502385  0.98360618    -0.74900
O50         O  0.01072002  0.62793317  0.95191738    -0.53800
C51         C  0.03001507  0.64108406  0.96008405     0.78800
O52         O  0.02326771  0.55260444  0.06832294    -0.59500
O53         O  0.00190273  0.57302480  0.09924893    -0.52600
C54         C  0.01751145  0.55630586  0.09152001     0.70800
O55         O  0.03548019  0.55776207  0.98539983    -0.74100
O56         O  0.01189421  0.57513030  0.95360558    -0.54700
C57         C  0.03088195  0.56175406  0.96196534     0.76800
O58         O  0.02777815  0.64965716  0.06883073    -0.59200
O59         O  0.00339898  0.63014027  0.09875291    -0.52400
C60         C  0.02100035  0.64569439  0.09188170     0.73400
Zr61       Zr  0.01657867  0.63708098  0.02578363     2.54700
O62         O  0.06467675  0.63912261  0.02928037    -0.79800
O63         O  0.01271608  0.68039470  0.02406188    -0.93200
Zr64       Zr  0.01563135  0.56706712  0.02600787     2.64700
O65         O  0.06362534  0.56686050  0.03140336    -0.98200
O66         O  0.01246130  0.52384118  0.02204839    -0.80200
O67         O  0.01731414  0.60194606  0.00102355    -0.83600
O68         O  0.01572856  0.60204286  0.05119357    -2.18300
O69         O  0.92253751  0.64903563  0.06351037    -0.67000
O70         O  0.94421518  0.62989942  0.09547884    -0.51500
C71         C  0.92675402  0.64469392  0.08691462     0.71800
O72         O  0.92622817  0.55519367  0.98108689    -0.59900
O73         O  0.95036730  0.57386200  0.95044734    -0.51900
C74         C  0.93242891  0.55887072  0.95789743     0.73600
O75         O  0.92086212  0.55608103  0.06590747    -0.71300
O76         O  0.94365721  0.57521773  0.09717110    -0.50000
C77         C  0.92552899  0.56050529  0.08937137     0.75000
O78         O  0.92432033  0.64647235  0.97986375    -0.66600
O79         O  0.94891736  0.62777029  0.94983749    -0.53800
C80         C  0.93008657  0.64195716  0.95678269     0.73400
Zr81       Zr  0.93901598  0.63711785  0.02248964     2.77500
O82         O  0.89071450  0.63818137  0.02162592    -0.97400
O83         O  0.94422137  0.68033421  0.02073143    -0.78200
Zr84       Zr  0.93778611  0.56706326  0.02386769     2.70100
O85         O  0.88971487  0.56958710  0.02058695    -0.79400
O86         O  0.93863277  0.52360455  0.02573868    -0.98500
Zr87       Zr  0.97919947  0.60161781  0.97406316     2.21500
Zr88       Zr  0.97515952  0.60206838  0.07505170     2.11100
O89         O  0.93698361  0.60239246  0.04813876    -2.47200
O90         O  0.93907800  0.60177407  0.99818331    -0.79200
O91         O  0.97665245  0.63733425  0.04931185    -0.71400
O92         O  0.97762483  0.56629452  0.99980262    -2.32400
O93         O  0.97886055  0.63752652  0.99884890    -2.28600
O94         O  0.97592005  0.56672767  0.04983332    -0.73200
H95         H  0.03084816  0.60188846  0.06233873     0.78800
H96         H  0.97811941  0.55212518  0.98952239     0.79900
H97         H  0.92092449  0.60261932  0.05797599     0.82100
H98         H  0.97940758  0.65146061  0.98816685     0.79700
H99         H  0.02905287  0.51778826  0.02965109     0.42800
H100        H  0.94002350  0.51828311  0.00806751     0.41700
H101        H  0.88442245  0.58080808  0.03400711     0.41400
H102        H  0.88561660  0.62811097  0.00711254     0.39400
H103        H  0.95874840  0.68389260  0.03269794     0.42500
H104        H  0.01595357  0.68464621  0.00626791     0.37300
H105        H  0.06993535  0.62311650  0.03536713     0.43400
H106        H  0.07029830  0.57854903  0.01892195     0.39800
H107        H  0.88499714  0.62876011  0.03642492     0.44700
H108        H  0.02856552  0.68640245  0.03310248     0.43400
H109        H  0.06687941  0.57457700  0.04784820     0.43600
H110        H  0.95612135  0.51980852  0.03316474     0.43900
C111        C  0.55715371  0.01004667  0.12999497     0.80600
N112        N  0.54591996  0.02511728  0.11304860    -0.77700
C113        C  0.53650354  0.01685684  0.09062682     0.83000
N114        N  0.53846736  0.99298618  0.08524816    -0.77700
C115        C  0.54963603  0.97770377  0.10237612     0.83100
N116        N  0.55905790  0.98663643  0.12426904    -0.79400
C117        C  0.55026584  0.00818788  0.91737713     0.80600
N118        N  0.55560198  0.98572965  0.92495028    -0.77700
C119        C  0.54912112  0.97773606  0.94808427     0.83000
N120        N  0.53704566  0.99267151  0.96472906    -0.77700
C121        C  0.53110140  0.01543466  0.95743068     0.83100
N122        N  0.53805854  0.02302806  0.93387197    -0.79400
C123        C  0.55859343  0.20867316  0.94938399     0.80600
N124        N  0.54485604  0.19416905  0.96544976    -0.77700
C125        C  0.53397395  0.17335569  0.95669895     0.83000
N126        N  0.53754913  0.16704269  0.93211802    -0.77700
C127        C  0.55082814  0.18174826  0.91610011     0.83100
N128        N  0.56106343  0.20229487  0.92504820    -0.79400
C129        C  0.55686064  0.21758065  0.08674541     0.80600
N130        N  0.57219414  0.20985049  0.10586201    -0.77700
C131        C  0.57455384  0.18647311  0.11141225     0.83000
N132        N  0.56031032  0.17035470  0.09778956    -0.77700
C133        C  0.54424335  0.17757521  0.07855839     0.83100
N134        N  0.54281975  0.20140295  0.07272954    -0.79400
C135        C  0.39786617  0.21185342  0.95602756     0.80600
N136        N  0.39331335  0.20556953  0.93190278    -0.77700
C137        C  0.40021124  0.18389706  0.92299171     0.83000
N138        N  0.41190279  0.16806997  0.93889443    -0.77700
C139        C  0.41712180  0.17405529  0.96325317     0.83100
N140        N  0.41014776  0.19615366  0.97185824    -0.79400
C141        C  0.38097448  0.00644717  0.93964375     0.80600
N142        N  0.38463748  0.98276027  0.94227004    -0.77700
C143        C  0.40270955  0.97376145  0.95854157     0.83000
N144        N  0.41751361  0.98906345  0.97303048    -0.77700
C145        C  0.41429010  0.01325060  0.97024659     0.83100
N146        N  0.39609577  0.02158264  0.95347856    -0.79400
C147        C  0.40380271  0.01279450  0.13358271     0.80600
N148        N  0.41806348  0.02658693  0.11753910    -0.77700
C149        C  0.42522980  0.01824476  0.09444903     0.83000
N150        N  0.41771923  0.99581251  0.08731095    -0.77700
C151        C  0.40367128  0.98187402  0.10365056     0.83100
N152        N  0.39665591  0.99066471  0.12627677    -0.79400
C153        C  0.38487409  0.20336008  0.08828410     0.80600
N154        N  0.38529303  0.20151225  0.11357643    -0.77700
C155        C  0.40209949  0.18667575  0.12553225     0.83000
N156        N  0.41850094  0.17277118  0.11153820    -0.77700
C157        C  0.41915543  0.17500362  0.08592951     0.83100
N158        N  0.40193800  0.19016028  0.07424060    -0.79400
O159        O  0.52991746  0.05657659  0.07652431    -0.74900
O160        O  0.50919599  0.02653802  0.05496844    -0.53800
C161        C  0.52452387  0.03427268  0.07267562     0.78800
O162        O  0.43088963  0.13557388  0.07807013    -0.59500
O163        O  0.44911405  0.16424258  0.05273519    -0.52600
C164        C  0.43420429  0.15735265  0.07117745     0.70800
O165        O  0.43549117  0.05706631  0.08252149    -0.74100
O166        O  0.45148611  0.02712238  0.05776804    -0.54700
C167        C  0.43844600  0.03494988  0.07696287     0.76800
O168        O  0.53495810  0.13714143  0.06918470    -0.59200
O169        O  0.51044558  0.16566578  0.04913121    -0.52400
C170        C  0.52890538  0.15910653  0.06449128     0.73400
Zr171      Zr  0.52206701  0.09616461  0.05765125     2.54700
O172        O  0.53334773  0.10000302  0.10195024    -0.79800
O173        O  0.56879905  0.09311289  0.04691255    -0.93200
Zr174      Zr  0.44455804  0.09605691  0.06509816     2.64700
O175        O  0.45040439  0.09887557  0.11047351    -0.98200
O176        O  0.39644561  0.09305393  0.06715968    -0.80200
O177        O  0.48330783  0.07259428  0.06229028    -0.83600
O178        O  0.48324925  0.11976186  0.06131494    -2.18300
O179        O  0.52506626  0.13390753  0.96857939    -0.67000
O180        O  0.50667892  0.16350228  0.99230978    -0.51500
C181        C  0.52107832  0.15600448  0.97385482     0.71800
O182        O  0.42445249  0.05326042  0.97973847    -0.59900
O183        O  0.44779759  0.02441062  0.00046055    -0.51900
C184        C  0.43000479  0.03122408  0.98456493     0.73600
O185        O  0.42412175  0.13410556  0.97592920    -0.71300
O186        O  0.44728428  0.16365107  0.99610046    -0.50000
C187        C  0.43013041  0.15625593  0.97979867     0.75000
O188        O  0.52253210  0.05489757  0.96865311    -0.66600
O189        O  0.50604778  0.02587959  0.99456718    -0.53800
C190        C  0.51904341  0.03294669  0.97490021     0.73400
Zr191      Zr  0.51313244  0.09451191  0.98435930     2.77500
O192        O  0.50425744  0.09427323  0.93928890    -0.97400
O193        O  0.56111094  0.09333401  0.97991507    -0.78200
Zr194      Zr  0.43562983  0.09427139  0.99214679     2.70100
O195        O  0.42510250  0.09273972  0.94751756    -0.79400
O196        O  0.38902478  0.09400922  0.00406193    -0.98500
Zr197      Zr  0.47920132  0.04751677  0.02606941     2.21500
Zr198      Zr  0.47870335  0.14279371  0.02358114     2.11100
O199        O  0.47445061  0.11787697  0.98725698    -2.47200
O200        O  0.47446093  0.07079781  0.98859925    -0.79200
O201        O  0.51807111  0.11916043  0.02032111    -0.71400
O202        O  0.43975097  0.07118599  0.02932128    -2.32400
O203        O  0.51864334  0.07136808  0.02154688    -2.28600
O204        O  0.43934126  0.11910582  0.02804440    -0.73200
H205        H  0.48460599  0.13008258  0.07578192     0.78800
H206        H  0.42430070  0.06108566  0.03121458     0.79900
H207        H  0.47314723  0.12740272  0.97218153     0.82100
H208        H  0.53412130  0.06135374  0.02024920     0.79700
H209        H  0.39222586  0.09513732  0.08518415     0.42800
H210        H  0.38096176  0.10697204  0.99399925     0.41700
H211        H  0.43931131  0.10220019  0.93934251     0.41400
H212        H  0.48900611  0.08324298  0.93726616     0.39400
H213        H  0.56424897  0.09660538  0.96186851     0.42500
H214        H  0.57804453  0.09302649  0.06333936     0.37300
H215        H  0.51646817  0.09692779  0.11088214     0.43400
H216        H  0.46081572  0.11367480  0.11322379     0.39800
H217        H  0.49691622  0.11021459  0.93536564     0.44700
H218        H  0.57330367  0.10882318  0.03945862     0.43400
H219        H  0.43254151  0.10260406  0.11702784     0.43600
H220        H  0.38174801  0.07914119  0.99667339     0.43900
C221        C  0.06474494  0.01432229  0.62434577     0.80600
N222        N  0.06172215  0.99068498  0.62108230    -0.77700
C223        C  0.04684084  0.98152703  0.60228720     0.83000
N224        N  0.03403794  0.99675129  0.58609278    -0.77700
C225        C  0.03731206  0.02103640  0.58891052     0.83100
N226        N  0.05287245  0.02946511  0.60796585    -0.79400
C227        C  0.87210846  0.01347080  0.60029357     0.80600
N228        N  0.88121896  0.99112601  0.60371650    -0.77700
C229        C  0.90527545  0.98432109  0.59548814     0.83000
N230        N  0.92127714  0.00044459  0.58358698    -0.77700
C231        C  0.91258151  0.02327578  0.57979627     0.83100
N232        N  0.88811114  0.02974387  0.58856578    -0.79400
C233        C  0.90946397  0.22167590  0.59973150     0.80600
N234        N  0.92534936  0.20643319  0.58657029    -0.77700
C235        C  0.91799905  0.18298292  0.58416161     0.83000
N236        N  0.89509869  0.17521708  0.59522421    -0.77700
C237        C  0.87923918  0.19032153  0.60827171     0.83100
N238        N  0.88679972  0.21343999  0.61024221    -0.79400
C239        C  0.05625830  0.21788604  0.60493127     0.80600
N240        N  0.03966598  0.20303777  0.59172737    -0.77700
C241        C  0.04915046  0.18204013  0.58209563     0.83000
N242        N  0.07494347  0.17593977  0.58629409    -0.77700
C243        C  0.09162624  0.19102270  0.59862782     0.83100
N244        N  0.08194489  0.21156808  0.60786960    -0.79400
C245        C  0.91074135  0.22189046  0.44984026     0.80600
N246        N  0.89259630  0.21208635  0.43422216    -0.77700
C247        C  0.88890914  0.18826279  0.43284738     0.83000
N248        N  0.90379375  0.17402344  0.44778453    -0.77700
C249        C  0.92217624  0.18324192  0.46393761     0.83100
N250        N  0.92602054  0.20747839  0.46478305    -0.79400
C251        C  0.86770921  0.01853087  0.45413217     0.80600
N252        N  0.87519990  0.99605903  0.44866681    -0.77700
C253        C  0.89958159  0.98801219  0.45468121     0.83000
N254        N  0.91708983  0.00275074  0.46671094    -0.77700
C255        C  0.90985026  0.02555483  0.47243337     0.83100
N256        N  0.88528990  0.03350845  0.46551595    -0.79400
C257        C  0.08704424  0.01425354  0.44698730     0.80600
N258        N  0.07067036  0.02976746  0.45897129    -0.77700
C259        C  0.04748721  0.02210313  0.46966704     0.83000
N260        N  0.04048739  0.99842202  0.46771123    -0.77700
C261        C  0.05682287  0.98282384  0.45531590     0.83100
N262        N  0.07966972  0.99114790  0.44520634    -0.79400
C263        C  0.05530088  0.22360491  0.45530742     0.80600
N264        N  0.07509563  0.21534811  0.44073310    -0.77700
C265        C  0.08043962  0.19198914  0.43840328     0.83000
N266        N  0.06581950  0.17599482  0.45185431    -0.77700
C267        C  0.04564682  0.18355400  0.46703733     0.83100
N268        N  0.04022914  0.20754723  0.46857604    -0.79400
O269        O  0.03629011  0.06228063  0.47839624    -0.74900
O270        O  0.01144984  0.03318673  0.49740996    -0.53800
C271        C  0.03042018  0.04014966  0.48268215     0.78800
O272        O  0.03689693  0.14216554  0.57359217    -0.59500
O273        O  0.01294739  0.17178953  0.55467104    -0.52600
C274        C  0.03158613  0.16436773  0.56939457     0.70800
O275        O  0.03045597  0.06109956  0.57665929    -0.74100
O276        O  0.00796694  0.03220509  0.55496634    -0.54700
C277        C  0.02440619  0.03902956  0.57218348     0.76800
O278        O  0.03501840  0.14319516  0.47636388    -0.59200
O279        O  0.01260543  0.17230895  0.49752895    -0.52400
C280        C  0.02993808  0.16532084  0.48127000     0.73400
Zr281      Zr  0.02097442  0.10268552  0.48889840     2.54700
O282        O  0.06921733  0.10375659  0.48936473    -0.79800
O283        O  0.01828476  0.10175998  0.44324061    -0.93200
Zr284      Zr  0.02037264  0.10209024  0.56282779     2.64700
O285        O  0.06852976  0.09926994  0.56187879    -0.98200
O286        O  0.01936830  0.10485595  0.60847964    -0.80200
O287        O  0.02062820  0.07863145  0.52572781    -0.83600
O288        O  0.02134561  0.12607609  0.52600645    -2.18300
O289        O  0.93205604  0.14389349  0.47496028    -0.67000
O290        O  0.95385953  0.17316468  0.49662666    -0.51500
C291        C  0.93726714  0.16597068  0.47965352     0.71800
O292        O  0.92450893  0.06348929  0.57200741    -0.59900
O293        O  0.94872562  0.03435685  0.55276039    -0.51900
C294        C  0.92980976  0.04143555  0.56733846     0.73600
O295        O  0.92864707  0.14320269  0.57472480    -0.71300
O296        O  0.95243241  0.17237720  0.55470939    -0.50000
C297        C  0.93435523  0.16526695  0.57030270     0.75000
O298        O  0.92407559  0.06473247  0.47981679    -0.66600
O299        O  0.94811399  0.03477257  0.49787794    -0.53800
C300        C  0.92875973  0.04257215  0.48417063     0.73400
Zr301      Zr  0.94323369  0.10369566  0.48857791     2.77500
O302        O  0.89493592  0.10496692  0.48839092    -0.97400
O303        O  0.94663746  0.10125121  0.44304531    -0.78200
Zr304      Zr  0.94232909  0.10318490  0.56226245     2.70100
O305        O  0.89408452  0.10404193  0.56131489    -0.79400
O306        O  0.94488169  0.10181048  0.60795710    -0.98500
Zr307      Zr  0.98068499  0.05513989  0.52522083     2.21500
Zr308      Zr  0.98243110  0.15073909  0.52606143     2.11100
O309        O  0.94252748  0.12727626  0.52550603    -2.47200
O310        O  0.94226142  0.07988774  0.52523997    -0.79200
O311        O  0.98253270  0.12698802  0.48862045    -0.71400
O312        O  0.98077093  0.07894292  0.56278986    -2.32400
O313        O  0.98154390  0.07920837  0.48782198    -2.28600
O314        O  0.98185228  0.12644248  0.56327145    -0.73200
H315        H  0.03719649  0.13581433  0.52598225     0.78800
H316        H  0.98012312  0.06886953  0.57752249     0.79900
H317        H  0.92710743  0.13743607  0.52524849     0.82100
H318        H  0.98130867  0.06926508  0.47300771     0.79700
H319        H  0.01312285  0.08900066  0.61428470     0.42800
H320        H  0.95164044  0.08567471  0.61195645     0.41700
H321        H  0.88962096  0.11357330  0.54622266     0.41400
H322        H  0.89023838  0.12161577  0.49264508     0.39400
H323        H  0.92806866  0.10182524  0.43702879     0.42500
H324        H  0.03669532  0.10474524  0.43757621     0.37300
H325        H  0.07401006  0.10283450  0.50737686     0.43400
H326        H  0.07354252  0.09454182  0.57917598     0.39800
H327        H  0.88988932  0.10315336  0.47051743     0.44700
H328        H  0.00858898  0.11647763  0.43866729     0.43400
H329        H  0.07218666  0.08495768  0.55157556     0.43600
H330        H  0.95970543  0.11270797  0.61228373     0.43900
C331        C  0.00024733  0.43814852  0.29692702    -0.10500
C332        C  0.97635212  0.44618578  0.28716817    -0.04400
C333        C  0.95192682  0.43922086  0.29675022    -0.10500
C334        C  0.95109633  0.42262573  0.31695665     0.10500
C335        C  0.97539436  0.41326499  0.32661594    -0.02300
C336        C  0.00015985  0.42108237  0.31656114     0.10300
C337        C  0.02379930  0.41140651  0.32608494    -0.12300
C338        C  0.02331290  0.39403968  0.34503038    -0.12300
C339        C  0.99919954  0.38615679  0.35535724     0.10300
C340        C  0.97493865  0.39600833  0.34626198    -0.02300
C341        C  0.92702708  0.41500114  0.32759446    -0.12400
C342        C  0.92658903  0.39813827  0.34707799    -0.12400
C343        C  0.95020621  0.38833677  0.35652860     0.10500
C344        C  0.95010678  0.37112223  0.37608919    -0.10500
C345        C  0.97406534  0.36180711  0.38449725    -0.04400
C346        C  0.99835270  0.36868863  0.37460786    -0.10500
H347        H  0.04280234  0.41703666  0.31865222     0.07700
H348        H  0.04195452  0.38688115  0.35170257     0.07700
H349        H  0.90837603  0.42198273  0.32074651     0.07900
H350        H  0.90759829  0.39273954  0.35471397     0.07900
H351        H  0.97682250  0.45874648  0.27155159     0.04400
H352        H  0.97378595  0.34793416  0.39881189     0.04400
C353        C  0.31406788  0.12744546  0.27395698    -0.10500
C354        C  0.32298317  0.10537683  0.26563422    -0.04400
C355        C  0.31380559  0.08398081  0.27581955    -0.10500
C356        C  0.29497790  0.08425728  0.29535773     0.10500
C357        C  0.28546794  0.10656439  0.30417640    -0.02300
C358        C  0.29487901  0.12833428  0.29335290     0.10300
C359        C  0.28457098  0.15009370  0.30193522    -0.12300
C360        C  0.26519246  0.15055218  0.32070236    -0.12300
C361        C  0.25589372  0.12929148  0.33174742     0.10300
C362        C  0.26620672  0.10705647  0.32355470    -0.02300
C363        C  0.28519405  0.06297490  0.30597843    -0.12400
C364        C  0.26623579  0.06347646  0.32504186    -0.12400
C365        C  0.25655820  0.08526964  0.33410772     0.10500
C366        C  0.23737264  0.08610115  0.35342932    -0.10500
C367        C  0.22852460  0.10810638  0.36194396    -0.04400
C368        C  0.23645247  0.12944885  0.35080133    -0.10500
H369        H  0.29132047  0.16687153  0.29401527     0.07700
H370        H  0.25770598  0.16769052  0.32676942     0.07700
H371        H  0.29211364  0.04577735  0.29950590     0.07900
H372        H  0.25922050  0.04668763  0.33273016     0.07900
H373        H  0.33727650  0.10480943  0.25038204     0.04400
H374        H  0.21308083  0.10853426  0.37616763     0.04400
C375        C  0.21603390  0.42058098  0.00039255    -0.10500
C376        C  0.19668428  0.42153010  0.01898781    -0.04400
C377        C  0.19455471  0.40425780  0.03765875    -0.22500
C378        C  0.21272331  0.38519971  0.03831167     0.10500
C379        C  0.23292845  0.38400301  0.01971072    -0.02300
C380        C  0.23444319  0.40158902  0.00039385     0.10300
C381        C  0.25426083  0.39972045  0.98196694    -0.12300
C382        C  0.27247086  0.38092939  0.98248477    -0.12300
C383        C  0.27157406  0.36363186  0.00160668     0.10300
C384        C  0.25158833  0.36516892  0.02044130    -0.02300
C385        C  0.21126361  0.36745665  0.05694931    -0.12400
C386        C  0.22970648  0.34900750  0.05775615    -0.12400
C387        C  0.25006709  0.34771498  0.03988872     0.10500
C388        C  0.26915706  0.32946530  0.04077764    -0.10500
C389        C  0.28900810  0.32874915  0.02273533    -0.04400
C390        C  0.29018351  0.34484177  0.00287045    -0.10500
H391        H  0.25581958  0.41286415  0.96709307     0.07700
H392        H  0.28752522  0.38017027  0.96803002     0.07700
H393        H  0.19596008  0.36789298  0.07118208     0.07900
H394        H  0.22808007  0.33582462  0.07258975     0.07900
H395        H  0.18250623  0.43609131  0.01872022     0.04400
H396        H  0.30336347  0.31433288  0.02350803     0.04400
C397        C  0.66646430  0.11989942  0.25832631    -0.10500
C398        C  0.64895806  0.10078390  0.25592885    -0.04400
C399        C  0.65133635  0.08017312  0.27046553    -0.10500
C400        C  0.67131790  0.07882291  0.28899785     0.10500
C401        C  0.68887112  0.09849293  0.29222716    -0.02300
C402        C  0.68672516  0.11902061  0.27655319     0.10300
C403        C  0.70474644  0.13797213  0.27954523    -0.12300
C404        C  0.72440310  0.13700828  0.29793442    -0.12300
C405        C  0.72658374  0.11706089  0.31382753     0.10300
C406        C  0.70883659  0.09750287  0.31089906    -0.02300
C407        C  0.67413873  0.05853731  0.30436665    -0.12400
C408        C  0.69369009  0.05766111  0.32296664    -0.12400
C409        C  0.71107791  0.07698474  0.32661718     0.10500
C410        C  0.73067198  0.07669407  0.34562753    -0.10500
C411        C  0.74753947  0.09624084  0.34839185    -0.04400
C412        C  0.74596807  0.11607627  0.33280188    -0.10500
H413        H  0.70359254  0.15374260  0.26779982     0.07700
H414        H  0.73780680  0.15207023  0.29975499     0.07700
H415        H  0.66096414  0.04334341  0.30230981     0.07900
H416        H  0.69502053  0.04183491  0.33460900     0.07900
H417        H  0.63398847  0.10141798  0.24123695     0.04400
H418        H  0.76271491  0.09585623  0.36291729     0.04400
C419        C  0.99708752  0.76378918  0.29916140    -0.10500
C420        C  0.97321602  0.75927886  0.28682664    -0.04400
C421        C  0.95187184  0.77474606  0.28812473    -0.10500
C422        C  0.95274098  0.79404420  0.30509772     0.10500
C423        C  0.97661593  0.79870995  0.31862599    -0.02300
C424        C  0.99925413  0.78397538  0.31507139     0.10300
C425        C  0.02299949  0.78975367  0.32758598    -0.12300
C426        C  0.02458090  0.80966836  0.34346299    -0.12300
C427        C  0.00239711  0.82425957  0.34746703     0.10300
C428        C  0.97804723  0.81855548  0.33511502    -0.02300
C429        C  0.93049706  0.80848226  0.30914533    -0.12400
C430        C  0.93134710  0.82696943  0.32672828    -0.12400
C431        C  0.95494580  0.83244299  0.33957828     0.10500
C432        C  0.95638675  0.85154163  0.35676224    -0.10500
C433        C  0.98077834  0.85809761  0.36683545    -0.04400
C434        C  0.00353553  0.84461143  0.36327217    -0.10500
H435        H  0.04046501  0.77883001  0.32517129     0.07700
H436        H  0.04326001  0.81359553  0.35266104     0.07700
H437        H  0.91209223  0.80504461  0.29924999     0.07900
H438        H  0.91361125  0.83739242  0.32974996     0.07900
H439        H  0.97216617  0.74461467  0.27347435     0.04400
H440        H  0.98165991  0.87336909  0.37941695     0.04400
C441        C  0.28506562  0.08309735  0.80020885    -0.10500
C442        C  0.30236221  0.10242256  0.80229877    -0.04400
C443        C  0.29935004  0.12301385  0.78782193    -0.10500
C444        C  0.27863030  0.12431192  0.76998013     0.10500
C445        C  0.26137207  0.10439172  0.76697747    -0.02300
C446        C  0.26459212  0.08365137  0.78215570     0.10300
C447        C  0.24721418  0.06423476  0.77905768    -0.12300
C448        C  0.22706859  0.06500118  0.76115031    -0.12300
C449        C  0.22349110  0.08533417  0.74604880     0.10300
C450        C  0.24060335  0.10533460  0.74906254    -0.02300
C451        C  0.27463317  0.14483931  0.75522093    -0.12400
C452        C  0.25406963  0.14580304  0.73762002    -0.12400
C453        C  0.23700943  0.12620135  0.73412356     0.10500
C454        C  0.21633957  0.12665280  0.71612929    -0.10500
C455        C  0.19997288  0.10673014  0.71333766    -0.04400
C456        C  0.20327747  0.08625662  0.72783265    -0.10500
H457        H  0.24924336  0.04824598  0.79035504     0.07700
H458        H  0.21423825  0.04955221  0.75923450     0.07700
H459        H  0.28747650  0.16027350  0.75717674     0.07900
H460        H  0.25165956  0.16195685  0.72665908     0.07900
H461        H  0.31780335  0.10191144  0.81654950     0.04400
H462        H  0.18430537  0.10708650  0.69929748     0.04400
C463        C  0.94196807  0.43973684  0.75876275    -0.10500
C464        C  0.96570810  0.44644276  0.77006074    -0.04400
C465        C  0.98995667  0.43694088  0.76309088    -0.10500
C466        C  0.99064508  0.41833132  0.74515920     0.10500
C467        C  0.96653753  0.41089463  0.73338365    -0.02300
C468        C  0.94201823  0.42179722  0.74001175     0.10300
C469        C  0.91860878  0.41434017  0.72792282    -0.12300
C470        C  0.91915375  0.39662103  0.70934768    -0.12300
C471        C  0.94309053  0.38568033  0.70247260     0.10300
C472        C  0.96701641  0.39266763  0.71484315    -0.02300
C473        C  0.01446548  0.40701666  0.73870177    -0.12400
C474        C  0.01474804  0.38839475  0.72123077    -0.12400
C475        C  0.99138064  0.38112171  0.70901649     0.10500
C476        C  0.99144146  0.36253272  0.69107573    -0.10500
C477        C  0.96827680  0.35706182  0.67821144    -0.04400
C478        C  0.94418016  0.36794016  0.68352389    -0.10500
H479        H  0.89975717  0.42227103  0.73275487     0.07700
H480        H  0.90072058  0.39150694  0.70034228     0.07700
H481        H  0.03298740  0.41232693  0.74740682     0.07900
H482        H  0.03347276  0.37994004  0.71697513     0.07900
H483        H  0.96537886  0.46021583  0.78444823     0.04400
H484        H  0.96870411  0.34265954  0.66452802     0.04400
C485        C  0.22013592  0.77503064  0.04655086    -0.10500
C486        C  0.21441240  0.76341161  0.02411092    -0.04400
C487        C  0.22899775  0.76741189  0.00230897    -0.10500
C488        C  0.24937690  0.78483090  0.00227660     0.10500
C489        C  0.25483170  0.79763380  0.02479646    -0.02300
C490        C  0.24036910  0.79251815  0.04716239     0.10300
C491        C  0.24671790  0.80474928  0.06939786    -0.12300
C492        C  0.26661434  0.82212900  0.06967741    -0.12300
C493        C  0.28063741  0.82788244  0.04769690     0.10300
C494        C  0.27494778  0.81539288  0.02504167    -0.02300
C495        C  0.26427511  0.78985686  0.98058491    -0.12400
C496        C  0.28396965  0.80752684  0.98077071    -0.12400
C497        C  0.28946736  0.82055933  0.00269848     0.10500
C498        C  0.30913362  0.83864327  0.00323109    -0.10500
C499        C  0.31360565  0.85117921  0.02535124    -0.04400
C500        C  0.30026218  0.84587124  0.04753088    -0.10500
H501        H  0.23622858  0.80100755  0.08670461     0.07700
H502        H  0.27077830  0.83126530  0.08717272     0.07700
H503        H  0.26055724  0.78028090  0.96326527     0.07900
H504        H  0.29486005  0.81099553  0.96362276     0.07900
H505        H  0.19861290  0.75014770  0.02383025     0.04400
H506        H  0.32851549  0.86526734  0.02546954     0.04400
C507        C  0.72657321  0.43002985  0.05092587    -0.10500
C508        C  0.74292973  0.43231166  0.03002092    -0.04400
C509        C  0.73911088  0.41891045  0.00838018    -0.10500
C510        C  0.71830508  0.40197552  0.00742089     0.10500
C511        C  0.70164488  0.39889586  0.02881312    -0.02300
C512        C  0.70595404  0.41277669  0.05085711     0.10300
C513        C  0.68958789  0.40904107  0.07188059    -0.12300
C514        C  0.66906124  0.39208524  0.07129197    -0.12300
C515        C  0.66399814  0.37865434  0.04951764     0.10300
C516        C  0.68051325  0.38208274  0.02803768    -0.02300
C517        C  0.71361992  0.38824362  0.98580291    -0.12400
C518        C  0.69297678  0.37157632  0.98510649    -0.12400
C519        C  0.67625903  0.36833156  0.00591136     0.10500
C520        C  0.65542460  0.35148807  0.00546297    -0.10500
C521        C  0.63881566  0.34921483  0.02606920    -0.04400
C522        C  0.64280295  0.36193999  0.04818985    -0.10500
H523        H  0.69263084  0.41922941  0.08892605     0.07700
H524        H  0.65688616  0.38976334  0.08786182     0.07700
H525        H  0.72596931  0.39029983  0.96931032     0.07900
H526        H  0.69001939  0.36131302  0.96809288     0.07900
H527        H  0.75887913  0.44544127  0.03038501     0.04400
H528        H  0.62328777  0.33568314  0.02546239     0.04400
C529        C  0.99974313  0.76604699  0.75854616    -0.10500
C530        C  0.97503586  0.75763766  0.76597696    -0.04400
C531        C  0.95152713  0.76514166  0.75484550    -0.10500
C532        C  0.95248314  0.78264330  0.73551409     0.10500
C533        C  0.97761132  0.79201907  0.72789768    -0.02300
C534        C  0.00141759  0.78351336  0.73928822     0.10300
C535        C  0.02592210  0.79287442  0.73135309    -0.12300
C536        C  0.02723527  0.81059985  0.71278745    -0.12300
C537        C  0.00408476  0.81954767  0.70158177     0.10300
C538        C  0.97893571  0.81011692  0.70909567    -0.02300
C539        C  0.92936633  0.79121079  0.72385861    -0.12400
C540        C  0.93064506  0.80918393  0.70551602    -0.12400
C541        C  0.95509503  0.81904437  0.69810263     0.10500
C542        C  0.95674908  0.83756649  0.67993512    -0.10500
C543        C  0.98148496  0.84657205  0.67331514    -0.04400
C544        C  0.00499649  0.83796177  0.68328027    -0.10500
H545        H  0.04423552  0.78664077  0.73967792     0.07700
H546        H  0.04650228  0.81746468  0.70736488     0.07700
H547        H  0.91011215  0.78421744  0.72914107     0.07900
H548        H  0.91233749  0.81542584  0.69718686     0.07900
H549        H  0.97407280  0.74455516  0.78108255     0.04400
H550        H  0.98252367  0.86125254  0.65993860     0.04400
C551        C  0.64367933  0.07912486  0.77263380    -0.10500
C552        C  0.63343609  0.10097902  0.78014936    -0.04400
C553        C  0.64302553  0.12259336  0.77086011    -0.10500
C554        C  0.66360383  0.12266289  0.75288059     0.10500
C555        C  0.67391856  0.10049465  0.74433963    -0.02300
C556        C  0.66399056  0.07856032  0.75428669     0.10300
C557        C  0.67483830  0.05693052  0.74589377    -0.12300
C558        C  0.69507779  0.05672527  0.72794354    -0.12300
C559        C  0.70517290  0.07814837  0.71793740     0.10300
C560        C  0.69456739  0.10029404  0.72623345    -0.02300
C561        C  0.67408728  0.14409494  0.74326599    -0.12400
C562        C  0.69450520  0.14389753  0.72554676    -0.12400
C563        C  0.70498511  0.12226286  0.71682009     0.10500
C564        C  0.72589388  0.12176322  0.69912962    -0.10500
C565        C  0.73552677  0.09994220  0.69093371    -0.04400
C566        C  0.72587505  0.07831703  0.70004317    -0.10500
H567        H  0.66766546  0.04003406  0.75317946     0.07700
H568        H  0.70289301  0.03967574  0.72197971     0.07700
H569        H  0.66653282  0.16117113  0.74944105     0.07900
H570        H  0.70207216  0.16080837  0.71866472     0.07900
H571        H  0.61814966  0.10122290  0.79451974     0.04400
H572        H  0.75180842  0.09978259  0.67756458     0.04400
C573        C  0.72110598  0.76459701  0.04574755    -0.10500
C574        C  0.73116973  0.75615727  0.02310922    -0.04400
C575        C  0.72326878  0.76536069  0.00003158    -0.10500
C576        C  0.70392124  0.78346272  0.99917141     0.10500
C577        C  0.69391305  0.79288270  0.02209723    -0.02300
C578        C  0.70254689  0.78346005  0.04556962     0.10300
C579        C  0.69247112  0.79314737  0.06793584    -0.12300
C580        C  0.67451113  0.81211088  0.06738202    -0.12300
C581        C  0.66597055  0.82185186  0.04444155     0.10300
C582        C  0.67556405  0.81198288  0.02152393    -0.02300
C583        C  0.69450497  0.79244018  0.97620536    -0.12400
C584        C  0.67585698  0.81075025  0.97563345    -0.12400
C585        C  0.66668154  0.82109231  0.99799813     0.10500
C586        C  0.64899256  0.84051391  0.99768932    -0.10500
C587        C  0.64077502  0.85055825  0.02027328    -0.04400
C588        C  0.64803598  0.84119879  0.04346475    -0.10500
H589        H  0.69858014  0.78617589  0.08601645     0.07700
H590        H  0.66742923  0.81922654  0.08503237     0.07700
H591        H  0.70152289  0.78529987  0.95854049     0.07900
H592        H  0.66909156  0.81716902  0.95753243     0.07900
H593        H  0.74624993  0.74235120  0.02349743     0.04400
H594        H  0.62721108  0.86559174  0.01976886     0.04400
C595        C  0.03691524  0.33973438  0.42513986    -0.22100
C596        C  0.03685494  0.31635573  0.41579291     0.09900
C597        C  0.03170994  0.31253348  0.38998056     0.10300
C598        C  0.02417987  0.33186228  0.37470982    -0.17000
C599        C  0.02103250  0.35484131  0.38477157    -0.27400
C600        C  0.02927743  0.35903488  0.40983000     0.18600
C601        C  0.04244798  0.29588157  0.43285543     0.12600
C602        C  0.03286974  0.28783135  0.37882592    -0.11800
H603        H  0.01756457  0.32848252  0.35564531     0.12900
C604        C  0.02812906  0.38354605  0.42128307    -0.22600
H605        H  0.04189991  0.34282629  0.44468727     0.08500
C606        C  0.06825910  0.28687147  0.43512641     0.04800
C607        C  0.07201096  0.26435560  0.44603629    -0.19900
C608        C  0.05042139  0.24995341  0.45383260    -0.12100
C609        C  0.02497628  0.26044584  0.45469709     0.13500
C610        C  0.02136645  0.28345860  0.44431683    -0.22600
C611        C  0.09168167  0.30052702  0.42486022    -0.05600
H612        H  0.09191174  0.25715409  0.44653562     0.15100
C613        C  0.00149968  0.24727811  0.46537623    -0.15800
H614        H  0.00177976  0.29119136  0.44384352     0.09400
H615        H  0.04803870  0.38853374  0.42855739     0.07200
H616        H  0.01373180  0.38358526  0.43703720     0.08500
H617        H  0.02211734  0.39731081  0.40739702     0.07500
H618        H  0.01862160  0.27585456  0.38855167     0.02400
H619        H  0.05314912  0.28049592  0.38096146     0.02900
H620        H  0.02785720  0.28791983  0.35849954     0.06400
H621        H  0.11059129  0.29091730  0.42810152     0.05300
H622        H  0.09306627  0.31819459  0.43421813    -0.00400
H623        H  0.08934726  0.30324930  0.40431557     0.01100
H624        H  0.98348991  0.25858841  0.46543160     0.04700
H625        H  0.00569207  0.24207763  0.48512110     0.06700
H626        H  0.99721581  0.23109443  0.45403869     0.07500
C627        C  0.13385063  0.19323933  0.38773099    -0.22100
C628        C  0.14986458  0.17421791  0.39521461     0.09900
C629        C  0.14181654  0.15966024  0.41558694     0.10300
C630        C  0.11851334  0.16521318  0.42878173    -0.17000
C631        C  0.10288614  0.18485822  0.42193515    -0.27400
C632        C  0.11023375  0.19850900  0.40038592     0.18600
C633        C  0.17406818  0.16880095  0.38045491     0.12600
C634        C  0.15761352  0.13804360  0.42318229    -0.11800
H635        H  0.11288332  0.15452147  0.44491745     0.12900
C636        C  0.09301714  0.21812020  0.38978543    -0.22600
H637        H  0.13986271  0.20398059  0.37174301     0.08500
C638        C  0.17228070  0.15921827  0.35597397     0.04800
C639        C  0.19528948  0.15091129  0.34419006    -0.19900
C640        C  0.21952310  0.15001582  0.35713891    -0.12100
C641        C  0.22160630  0.16085380  0.38101720     0.13500
C642        C  0.19900017  0.17089307  0.39202356    -0.22600
C643        C  0.14584170  0.15539223  0.34331215    -0.05600
H644        H  0.19358936  0.14185177  0.32625613     0.15100
C645        C  0.24675559  0.15988629  0.39625832    -0.15800
H646        H  0.20040486  0.17850848  0.41069750     0.09400
H647        H  0.10018692  0.22429589  0.37113927     0.07200
H648        H  0.09321321  0.23392226  0.40229260     0.08500
H649        H  0.07241669  0.21145634  0.38725983     0.07500
H650        H  0.17747754  0.14354851  0.43006247     0.02400
H651        H  0.15999085  0.12603464  0.40677989     0.02900
H652        H  0.14772995  0.12782743  0.43844638     0.06400
H653        H  0.14795351  0.14624104  0.32493099     0.05300
H654        H  0.13606762  0.17278265  0.33985547    -0.00400
H655        H  0.13294578  0.14411018  0.35542069     0.01100
H656        H  0.25291216  0.17826327  0.40153147     0.04700
H657        H  0.26332836  0.15162048  0.38576308     0.06700
H658        H  0.24324388  0.14932507  0.41363038     0.07500
C659        C  0.17853425  0.04731431  0.36608244    -0.22100
C660        C  0.18113244  0.04467663  0.39219666     0.09900
C661        C  0.20567322  0.05016330  0.40374450     0.10300
C662        C  0.22623718  0.06002912  0.38921372    -0.17000
C663        C  0.22248599  0.06535761  0.36366976    -0.27400
C664        C  0.19871672  0.05806078  0.35177061     0.18600
C665        C  0.15737829  0.03778348  0.40718610     0.12600
C666        C  0.20950446  0.04749844  0.43168817    -0.11800
H667        H  0.24421844  0.06615783  0.39839638     0.12900
C668        C  0.19365206  0.06373291  0.32449852    -0.22600
H669        H  0.15983032  0.04268753  0.35724699     0.08500
C670        C  0.13517546  0.05300355  0.40979091     0.04800
C671        C  0.11291505  0.04511151  0.42341040    -0.19900
C672        C  0.11203812  0.02233866  0.43448051    -0.12100
C673        C  0.13462818  0.00733638  0.43221188     0.13500
C674        C  0.15682240  0.01529279  0.41861261    -0.22600
C675        C  0.13420895  0.07771633  0.39857897    -0.05600
H676        H  0.09586266  0.05673569  0.42491257     0.15100
C677        C  0.13590515  0.98289970  0.44406101    -0.15800
H678        H  0.17376717  0.00364756  0.41642162     0.09400
H679        H  0.17397472  0.05704513  0.31820197     0.07200
H680        H  0.20906286  0.05524441  0.31269036     0.08500
H681        H  0.19416634  0.08335772  0.32148598     0.07500
H682        H  0.20740331  0.02847682  0.43719075     0.02400
H683        H  0.19451484  0.05828341  0.44180340     0.02900
H684        H  0.22948301  0.05364782  0.43773496     0.06400
H685        H  0.11813786  0.07853685  0.38432829     0.05300
H686        H  0.15302916  0.08320841  0.38952244    -0.00400
H687        H  0.12990583  0.09082768  0.41362104     0.01100
H688        H  0.12225745  0.97055632  0.43411221     0.04700
H689        H  0.13069068  0.98397152  0.46428508     0.06700
H690        H  0.15605749  0.97509256  0.44272772     0.07500
C691        C  0.02314077  0.92601288  0.43127083    -0.22100
C692        C  0.04530492  0.91122846  0.42799762     0.09900
C693        C  0.06987377  0.91849876  0.43801315     0.10300
C694        C  0.07211044  0.94101112  0.44954020    -0.17000
C695        C  0.05056984  0.95698370  0.45070854    -0.27400
C696        C  0.02548001  0.94877910  0.44248697     0.18600
C697        C  0.04264142  0.88944528  0.41202883     0.12600
C698        C  0.09391420  0.90281568  0.43578980    -0.11800
H699        H  0.09128333  0.94670710  0.45653042     0.12900
C700        C  0.00144890  0.96431610  0.44413588    -0.22600
H701        H  0.00416522  0.92018521  0.42382818     0.08500
C702        C  0.03192511  0.86787644  0.42136321     0.04800
C703        C  0.02462252  0.84968769  0.40440855    -0.19900
C704        C  0.02662858  0.85312067  0.37825429    -0.12100
C705        C  0.04084840  0.87322976  0.36938775     0.13500
C706        C  0.04856158  0.89122772  0.38632674    -0.22600
C707        C  0.02663309  0.86470633  0.44898520    -0.05600
H708        H  0.01365671  0.83434328  0.41133719     0.15100
C709        C  0.04564113  0.87715804  0.34179294    -0.15800
H710        H  0.05756135  0.90748502  0.37917397     0.09400
H711        H  0.99775690  0.96928050  0.46399911     0.07200
H712        H  0.98362951  0.95475086  0.43714651     0.08500
H713        H  0.00441519  0.98068460  0.43266238     0.07500
H714        H  0.09842075  0.89955575  0.41568173     0.02400
H715        H  0.09009213  0.88547116  0.44526767     0.02900
H716        H  0.11165352  0.91114423  0.44460267     0.06400
H717        H  0.01818600  0.84679063  0.45318471     0.05300
H718        H  0.01232795  0.87836933  0.45547200    -0.00400
H719        H  0.04543430  0.86668974  0.45966106     0.01100
H720        H  0.03506291  0.89343169  0.33543707     0.04700
H721        H  0.03877746  0.86180164  0.33030834     0.06700
H722        H  0.06721245  0.87953923  0.33844722     0.07500
C723        C  0.75167947  0.05093502  0.40577572    -0.22100
C724        C  0.77385776  0.03852779  0.39706715     0.09900
C725        C  0.77519651  0.03188148  0.37150548     0.10300
C726        C  0.75618510  0.04072934  0.35460825    -0.17000
C727        C  0.73649577  0.05652895  0.36275412    -0.27400
C728        C  0.73284321  0.05991160  0.38885784     0.18600
C729        C  0.79680712  0.03534310  0.41418412     0.12600
C730        C  0.79761154  0.01680208  0.36183276    -0.11800
H731        H  0.75893694  0.03805224  0.33461300     0.12900
C732        C  0.71094032  0.07531350  0.39893045    -0.22600
H733        H  0.75021752  0.05535396  0.42554948     0.08500
C734        C  0.81848626  0.05147946  0.41384552     0.04800
C735        C  0.84085449  0.04680950  0.42885824    -0.19900
C736        C  0.84171628  0.02664882  0.44452358    -0.12100
C737        C  0.81888827  0.01189737  0.44658075     0.13500
C738        C  0.79689764  0.01620080  0.43107368    -0.22600
C739        C  0.81810616  0.07345437  0.39742454    -0.05600
H740        H  0.85821249  0.05820470  0.42733944     0.15100
C741        C  0.81704890  0.99153522  0.46506990    -0.15800
H742        H  0.77981141  0.00441430  0.43200018     0.09400
H743        H  0.71955309  0.09124811  0.40834846     0.07200
H744        H  0.69910574  0.06496087  0.41277971     0.08500
H745        H  0.69731877  0.08139398  0.38384535     0.07500
H746        H  0.79761911  0.99934846  0.37174724     0.02400
H747        H  0.81688483  0.02590639  0.36511218     0.02900
H748        H  0.79567954  0.01335326  0.34136244     0.06400
H749        H  0.83653192  0.08419744  0.39955947     0.05300
H750        H  0.80105534  0.08487705  0.40265895    -0.00400
H751        H  0.81619993  0.06835755  0.37737051     0.01100
H752        H  0.79928556  0.99395149  0.47708234     0.04700
H753        H  0.83442104  0.99056018  0.47780835     0.06700
H754        H  0.81515785  0.97437628  0.45478957     0.07500
C755        C  0.93062241  0.94191081  0.41237225    -0.22100
C756        C  0.91204395  0.92320892  0.41435079     0.09900
C757        C  0.89123603  0.92503411  0.43196162     0.10300
C758        C  0.88950525  0.94553728  0.44701522    -0.17000
C759        C  0.90725512  0.96475440  0.44407252    -0.27400
C760        C  0.92766068  0.96313473  0.42607277     0.18600
C761        C  0.91514812  0.90199928  0.39782954     0.12600
C762        C  0.86982187  0.90624010  0.43374312    -0.11800
H763        H  0.87311005  0.94730387  0.46002443     0.12900
C764        C  0.94447964  0.98455306  0.41941041    -0.22600
H765        H  0.94671196  0.94039260  0.39900262     0.08500
C766        C  0.91480615  0.90386828  0.37127475     0.04800
C767        C  0.92439615  0.88480785  0.35672885    -0.19900
C768        C  0.93348690  0.86384804  0.36822972    -0.12100
C769        C  0.92950127  0.86068394  0.39434723     0.13500
C770        C  0.92124954  0.88001298  0.40892505    -0.22600
C771        C  0.90510573  0.92612905  0.35832148    -0.05600
H772        H  0.92730125  0.88719904  0.33670803     0.15100
C773        C  0.93709959  0.83792652  0.40763619    -0.15800
H774        H  0.92135556  0.87832470  0.42921224     0.09400
H775        H  0.95906028  0.98038034  0.40445174     0.07200
H776        H  0.95546766  0.99092226  0.43618190     0.08500
H777        H  0.93162171  0.99918344  0.41243584     0.07500
H778        H  0.87822631  0.88899853  0.44005219     0.02400
H779        H  0.86028303  0.90386619  0.41508851     0.02900
H780        H  0.85419475  0.91131243  0.44738133     0.06400
H781        H  0.90493367  0.92400984  0.33757645     0.05300
H782        H  0.91805397  0.94157831  0.36282651    -0.00400
H783        H  0.88455440  0.93001293  0.36448030     0.01100
H784        H  0.95393873  0.84144963  0.42060537     0.04700
H785        H  0.94294033  0.82366710  0.39431728     0.06700
H786        H  0.91993921  0.83119048  0.41863723     0.07500
C787        C  0.89154539  0.28602044  0.44054463    -0.22100
C788        C  0.91278828  0.29406173  0.42588747     0.09900
C789        C  0.93561115  0.27961279  0.42359135     0.10300
C790        C  0.93593335  0.25678734  0.43467947    -0.17000
C791        C  0.91400007  0.24806252  0.44802162    -0.27400
C792        C  0.89181174  0.26317728  0.45152127     0.18600
C793        C  0.91125133  0.31764864  0.41308809     0.12600
C794        C  0.95933016  0.28798731  0.40874580    -0.11800
H795        H  0.95247026  0.24497900  0.43114364     0.12900
C796        C  0.86759456  0.25524336  0.46588617    -0.22600
H797        H  0.87427722  0.29728086  0.44271547     0.08500
C798        C  0.90737751  0.31946045  0.38684118     0.04800
C799        C  0.91507313  0.34055294  0.37432665    -0.19900
C800        C  0.92643062  0.35964491  0.38768423    -0.12100
C801        C  0.92483864  0.35938731  0.41428716     0.13500
C802        C  0.91780144  0.33818780  0.42672575    -0.22600
C803        C  0.89661433  0.29868282  0.37199198    -0.05600
H804        H  0.91567524  0.34079435  0.35397201     0.15100
C805        C  0.93454696  0.38012348  0.42979012    -0.15800
H806        H  0.91977341  0.33710666  0.44698396     0.09400
H807        H  0.85019440  0.25476782  0.45308258     0.07200
H808        H  0.86364760  0.26807385  0.48130106     0.08500
H809        H  0.86996359  0.23732389  0.47448499     0.07500
H810        H  0.96705205  0.30492547  0.41678294     0.02400
H811        H  0.95382326  0.29108781  0.38884404     0.02900
H812        H  0.97544258  0.27457075  0.40904519     0.06400
H813        H  0.89481786  0.30309145  0.35170907     0.05300
H814        H  0.87661372  0.29386823  0.37911402    -0.00400
H815        H  0.90976627  0.28296610  0.37386376     0.01100
H816        H  0.91874846  0.38568809  0.44301032     0.04700
H817        H  0.93978246  0.39575571  0.41790800     0.06700
H818        H  0.95234797  0.37475487  0.44070001     0.07500
C819        C  0.83963881  0.14801431  0.39764214    -0.22100
C820        C  0.83012493  0.16403691  0.37957645     0.09900
C821        C  0.84024734  0.18737415  0.37848806     0.10300
C822        C  0.85974653  0.19434048  0.39572926    -0.17000
C823        C  0.86923472  0.17860863  0.41444449    -0.27400
C824        C  0.85906139  0.15489700  0.41515574     0.18600
C825        C  0.80831297  0.15625452  0.36304529     0.12600
C826        C  0.83028750  0.20493362  0.35921821    -0.11800
H827        H  0.86738889  0.21241391  0.39457573     0.12900
C828        C  0.86774919  0.13679877  0.43442217    -0.22600
H829        H  0.83137702  0.13011722  0.39826740     0.08500
C830        C  0.81293744  0.14181195  0.34186107     0.04800
C831        C  0.79126554  0.13152961  0.32937096    -0.19900
C832        C  0.76535392  0.13509752  0.33806766    -0.12100
C833        C  0.76070749  0.15116741  0.35796016     0.13500
C834        C  0.78233612  0.16167946  0.37018561    -0.22600
C835        C  0.84068684  0.13634257  0.33329994    -0.05600
H836        H  0.79465788  0.11882001  0.31438069     0.15100
C837        C  0.73331823  0.15602894  0.36792393    -0.15800
H838        H  0.77897869  0.17301909  0.38635923     0.09400
H839        H  0.88915670  0.13294131  0.43209257     0.07200
H840        H  0.85690054  0.11959030  0.43241752     0.08500
H841        H  0.86385405  0.14364474  0.45362110     0.07500
H842        H  0.80873643  0.20791534  0.36189987     0.02400
H843        H  0.83371440  0.19781280  0.34004635     0.02900
H844        H  0.84053587  0.22246788  0.36073487     0.06400
H845        H  0.84071830  0.12474299  0.31639011     0.05300
H846        H  0.85165958  0.12698817  0.34846611    -0.00400
H847        H  0.85117848  0.15322560  0.32857000     0.01100
H848        H  0.73192731  0.14981969  0.38770459     0.04700
H849        H  0.71755623  0.14699873  0.35687479     0.06700
H850        H  0.72945114  0.17551900  0.36724964     0.07500
C851        C  0.01992498  0.30240188  0.68515816    -0.22100
C852        C  0.03059780  0.30408895  0.66091822     0.09900
C853        C  0.03544451  0.32692669  0.65051776     0.10300
C854        C  0.02656304  0.34736732  0.66332667    -0.17000
C855        C  0.01327495  0.34543642  0.68644126    -0.27400
C856        C  0.01177031  0.32280736  0.69823153     0.18600
C857        C  0.03639893  0.28169490  0.64689406     0.12600
C858        C  0.04932512  0.32966482  0.62565692    -0.11800
H859        H  0.02755666  0.36462546  0.65411630     0.12900
C860        C  0.99935128  0.31947708  0.72371684    -0.22600
H861        H  0.01691095  0.28494664  0.69354992     0.08500
C862        C  0.05756490  0.26691606  0.65406768     0.04800
C863        C  0.06240014  0.24597366  0.64055095    -0.19900
C864        C  0.04717668  0.23936258  0.61931799    -0.12100
C865        C  0.02557805  0.25404246  0.61235337     0.13500
C866        C  0.02031359  0.27490463  0.62641449    -0.22600
C867        C  0.07569488  0.27356660  0.67554682    -0.05600
H868        H  0.07870490  0.23482140  0.64660533     0.15100
C869        C  0.00879207  0.24850348  0.58967134    -0.15800
H870        H  0.00382192  0.28622383  0.62118102     0.09400
H871        H  0.01365917  0.31044031  0.73639346     0.07200
H872        H  0.98123947  0.30825023  0.72200062     0.08500
H873        H  0.99387459  0.33666291  0.73256987     0.07500
H874        H  0.03765594  0.32083139  0.61059693     0.02400
H875        H  0.06925067  0.32137583  0.62676628     0.02900
H876        H  0.05193889  0.34874630  0.62045728     0.06400
H877        H  0.09192501  0.26043398  0.67803747     0.05300
H878        H  0.06439202  0.27424116  0.69337972    -0.00400
H879        H  0.08483677  0.29130471  0.67187380     0.01100
H880        H  0.99903369  0.23086357  0.59188789     0.04700
H881        H  0.02140870  0.24825910  0.57260786     0.06700
H882        H  0.99301183  0.26202200  0.58685416     0.07500
C883        C  0.17472504  0.17223729  0.68405357    -0.22100
C884        C  0.18134303  0.16714904  0.65905748     0.09900
C885        C  0.20450124  0.15405327  0.65390403     0.10300
C886        C  0.21913630  0.14438608  0.67395991    -0.17000
C887        C  0.21041505  0.14676087  0.69888893    -0.27400
C888        C  0.18876182  0.16191889  0.70404910     0.18600
C889        C  0.16099535  0.17152517  0.63942898     0.12600
C890        C  0.21244451  0.14865241  0.62727555    -0.11800
H891        H  0.23546152  0.13245317  0.66999882     0.12900
C892        C  0.17841448  0.16553469  0.73028910    -0.22600
H893        H  0.15695454  0.18239786  0.68796082     0.08500
C894        C  0.14000589  0.15508057  0.63594889     0.04800
C895        C  0.11897539  0.16082803  0.61985246    -0.19900
C896        C  0.11784992  0.18307939  0.60788345    -0.12100
C897        C  0.13978909  0.19894230  0.60998229     0.13500
C898        C  0.16124071  0.19285967  0.62567756    -0.22600
C899        C  0.13908968  0.13191113  0.65026177    -0.05600
H900        H  0.10222074  0.14870968  0.61838921     0.15100
C901        C  0.14061843  0.22230917  0.59588675    -0.15800
H902        H  0.17763862  0.20521703  0.62812626     0.09400
H903        H  0.15799240  0.15815980  0.73169991     0.07200
H904        H  0.17793695  0.18492075  0.73458704     0.08500
H905        H  0.19094704  0.15675497  0.74470305     0.07500
H906        H  0.21591258  0.16561114  0.61694135     0.02400
H907        H  0.19646396  0.13838735  0.61774631     0.02900
H908        H  0.23090156  0.13794160  0.62651110     0.06400
H909        H  0.12118175  0.12128637  0.64537089     0.05300
H910        H  0.13855117  0.13543269  0.67076805    -0.00400
H911        H  0.15690137  0.12117243  0.64578930     0.01100
H912        H  0.12487939  0.23445610  0.60261531     0.04700
H913        H  0.13790969  0.21895847  0.57548740     0.06700
H914        H  0.15989360  0.23165939  0.59851334     0.07500
C915        C  0.91861336  0.33809116  0.62863136    -0.22100
C916        C  0.91264549  0.31613160  0.64008979     0.09900
C917        C  0.90653950  0.31583725  0.66608198     0.10300
C918        C  0.91068656  0.33656927  0.68052326    -0.17000
C919        C  0.92145204  0.35728022  0.66964318    -0.27400
C920        C  0.92212611  0.35884231  0.64311300     0.18600
C921        C  0.91511527  0.29347528  0.62544545     0.12600
C922        C  0.89689455  0.29340637  0.67889565    -0.11800
H923        H  0.90952685  0.33540184  0.70082637     0.12900
C924        C  0.93028750  0.38159020  0.63015885    -0.22600
H925        H  0.92253821  0.33878575  0.60863981     0.08500
C926        C  0.89750341  0.28739035  0.60577414     0.04800
C927        C  0.89846514  0.26432957  0.59533185    -0.19900
C928        C  0.91619228  0.24702780  0.60437915    -0.12100
C929        C  0.93464041  0.25349408  0.62317350     0.13500
C930        C  0.93455693  0.27689572  0.63275868    -0.22600
C931        C  0.87654031  0.30452525  0.59689698    -0.05600
H932        H  0.88388364  0.25914851  0.58135260     0.15100
C933        C  0.95252801  0.23513213  0.63493869    -0.15800
H934        H  0.94842979  0.28173894  0.64749943     0.09400
H935        H  0.91482745  0.38673822  0.61632622     0.07200
H936        H  0.94936384  0.37891654  0.62019856     0.08500
H937        H  0.93268824  0.39651093  0.64370992     0.07500
H938        H  0.91239572  0.27945312  0.67853594     0.02400
H939        H  0.87883856  0.28666365  0.66922894     0.02900
H940        H  0.89179605  0.29671234  0.69887839     0.06400
H941        H  0.86363092  0.29641884  0.58225934     0.05300
H942        H  0.88593434  0.32064037  0.58861400    -0.00400
H943        H  0.86381377  0.30983305  0.61292373     0.01100
H944        H  0.96480846  0.22659486  0.62030344     0.04700
H945        H  0.94037240  0.22116357  0.64433055     0.06700
H946        H  0.96596533  0.24317132  0.64919467     0.07500
C947        C  0.82063328  0.15295464  0.63378655    -0.22100
C948        C  0.80637140  0.17050076  0.64673985     0.09900
C949        C  0.81562453  0.19419406  0.64661521     0.10300
C950        C  0.83914291  0.19983013  0.63384721    -0.17000
C951        C  0.85399970  0.18238043  0.62089953    -0.27400
C952        C  0.84422541  0.15848312  0.62078357     0.18600
C953        C  0.78256706  0.16335621  0.66141663     0.12600
C954        C  0.80051387  0.21360558  0.65985167    -0.11800
H955        H  0.84587451  0.21821276  0.63418218     0.12900
C956        C  0.85821485  0.13855567  0.60726758    -0.22600
H957        H  0.81332029  0.13471959  0.63410939     0.08500
C958        C  0.75794276  0.15863434  0.64978355     0.04800
C959        C  0.73722315  0.14861051  0.66404330    -0.19900
C960        C  0.74083479  0.14274023  0.68952234    -0.12100
C961        C  0.76477208  0.14946881  0.70152816     0.13500
C962        C  0.78527613  0.15977575  0.68735160    -0.22600
C963        C  0.75398432  0.16316234  0.62214149    -0.05600
H964        H  0.71914419  0.14298337  0.65468382     0.15100
C965        C  0.77016454  0.14399914  0.72877848    -0.15800
H966        H  0.80410040  0.16374007  0.69632712     0.09400
H967        H  0.84740637  0.12133543  0.60900943     0.07200
H968        H  0.87830408  0.13596716  0.61534226     0.08500
H969        H  0.85960212  0.14272784  0.58691660     0.07500
H970        H  0.79919626  0.20955677  0.68023046     0.02400
H971        H  0.78019882  0.21481387  0.65189770     0.02900
H972        H  0.81025972  0.23131236  0.65769172     0.06400
H973        H  0.73354589  0.15851342  0.61601304     0.05300
H974        H  0.76805667  0.15222984  0.61107940    -0.00400
H975        H  0.75749714  0.18235170  0.61798960     0.01100
H976        H  0.78701858  0.13138474  0.73026362     0.04700
H977        H  0.75284016  0.13597547  0.73844790     0.06700
H978        H  0.77538641  0.16076352  0.73877226     0.07500
C979        C  0.90138369  0.91841929  0.60885881    -0.22100
C980        C  0.91867709  0.91651552  0.62944742     0.09900
C981        C  0.93496650  0.93646506  0.63569947     0.10300
C982        C  0.93222579  0.95792898  0.62220540    -0.17000
C983        C  0.91386707  0.96008802  0.60257655    -0.27400
C984        C  0.89868485  0.93988308  0.59547461     0.18600
C985        C  0.92045122  0.89298525  0.64264383     0.12600
C986        C  0.95543471  0.93605736  0.65639196    -0.11800
H987        H  0.94350865  0.97351626  0.62800394     0.12900
C988        C  0.87901486  0.94055191  0.57413233    -0.22600
H989        H  0.88940638  0.90312114  0.60348704     0.08500
C990        C  0.91450366  0.88992331  0.66846884     0.04800
C991        C  0.92220052  0.86867034  0.68070303    -0.19900
C992        C  0.93437147  0.85009999  0.66734372    -0.12100
C993        C  0.93473079  0.85144727  0.64074795     0.13500
C994        C  0.92858166  0.87304963  0.62880230    -0.22600
C995        C  0.90027596  0.90895261  0.68310577    -0.05600
H996        H  0.92121091  0.86758763  0.70101223     0.15100
C997        C  0.94512223  0.83128328  0.62494936    -0.15800
H998        H  0.93166437  0.87472216  0.60871636     0.09400
H999        H  0.85881978  0.93671029  0.58139605     0.07200
H1000       H  0.88425331  0.92674145  0.56006578     0.08500
H1001       H  0.87869796  0.95803332  0.56432136     0.07500
H1002       H  0.95762042  0.91825673  0.66521564     0.02400
H1003       H  0.94997968  0.94913415  0.67113877     0.02900
H1004       H  0.97504623  0.94139926  0.64875315     0.06400
H1005       H  0.89649858  0.90322267  0.70276872     0.05300
H1006       H  0.88086677  0.91264765  0.67407322    -0.00400
H1007       H  0.91196455  0.92568408  0.68377738     0.01100
H1008       H  0.93008642  0.82630085  0.61060801     0.04700
H1009       H  0.94941247  0.81516584  0.63639896     0.06700
H1010       H  0.96361870  0.83700532  0.61532271     0.07500
C1011       C  0.80448053  0.00924588  0.63265899    -0.22100
C1012       C  0.80138540  0.03261980  0.64115361     0.09900
C1013       C  0.81976428  0.05035068  0.63366210     0.10300
C1014       C  0.84193181  0.04390921  0.61918944    -0.17000
C1015       C  0.84617249  0.02009094  0.61194160    -0.27400
C1016       C  0.82636005  0.00269438  0.61797097     0.18600
C1017       C  0.77907957  0.03815971  0.65833102     0.12600
C1018       C  0.81596969  0.07607863  0.64102966    -0.11800
H1019       H  0.85648620  0.05743791  0.61435741     0.12900
C1020       C  0.82756238  0.97715703  0.60898224    -0.22600
H1021       H  0.78990418  0.99591041  0.63805511     0.08500
C1022       C  0.75298602  0.04127947  0.64935876     0.04800
C1023       C  0.73352710  0.05024940  0.66563911    -0.19900
C1024       C  0.73995554  0.05715502  0.69027924    -0.12100
C1025       C  0.76549110  0.05193916  0.69980001     0.13500
C1026       C  0.78463403  0.04218353  0.68379200    -0.22600
C1027       C  0.74626055  0.03709749  0.62214144    -0.05600
H1028       H  0.71419002  0.05481653  0.65817103     0.15100
C1029       C  0.77389383  0.05893448  0.72596128    -0.15800
H1030       H  0.80460520  0.03939591  0.69074235     0.09400
H1031       H  0.80879161  0.96735822  0.61279168     0.07200
H1032       H  0.84348750  0.96732761  0.61891809     0.08500
H1033       H  0.83088140  0.97675914  0.58837135     0.07500
H1034       H  0.81630838  0.07786063  0.66178404     0.02400
H1035       H  0.79664544  0.08256127  0.63375335     0.02900
H1036       H  0.83186127  0.08769140  0.63330187     0.06400
H1037       H  0.72515795  0.04115390  0.61804502     0.05300
H1038       H  0.74984218  0.01813549  0.61724003    -0.00400
H1039       H  0.75879113  0.04874142  0.61007531     0.01100
H1040       H  0.78153243  0.04301243  0.73604073     0.04700
H1041       H  0.75729980  0.06629518  0.73713625     0.06700
H1042       H  0.78985625  0.07262868  0.72490368     0.07500
C1043       C  0.16950361  0.03890379  0.69023557    -0.22100
C1044       C  0.14321876  0.04342071  0.69716281     0.09900
C1045       C  0.13792401  0.05707561  0.71882049     0.10300
C1046       C  0.15905936  0.06823090  0.73133919    -0.17000
C1047       C  0.18501792  0.06636248  0.72221406    -0.27400
C1048       C  0.19053655  0.05058880  0.70224637     0.18600
C1049       C  0.12195579  0.03697255  0.67925091     0.12600
C1050       C  0.10996878  0.06141757  0.72751596    -0.11800
H1051       H  0.15503198  0.08047649  0.74660909     0.12900
C1052       C  0.21802376  0.04740239  0.69177457    -0.22600
H1053       H  0.17345134  0.02796004  0.67388084     0.08500
C1054       C  0.11904184  0.04952017  0.65636755     0.04800
C1055       C  0.09927516  0.04253546  0.63933708    -0.19900
C1056       C  0.08265970  0.02299515  0.64446475    -0.12100
C1057       C  0.08499032  0.01101814  0.66794889     0.13500
C1058       C  0.10462218  0.01826301  0.68503852    -0.22600
C1059       C  0.13683463  0.07030096  0.64993871    -0.05600
H1060       H  0.09753467  0.05176922  0.62149778     0.15100
C1061       C  0.06674197  0.99082018  0.67546430    -0.15800
H1062       H  0.10686119  0.00898074  0.70279807     0.09400
H1063       H  0.21852697  0.05369132  0.67198008     0.07200
H1064       H  0.22334457  0.02819382  0.69231288     0.08500
H1065       H  0.23330748  0.05736345  0.70252576     0.07500
H1066       H  0.10035111  0.04416779  0.73239725     0.02400
H1067       H  0.09846164  0.07029539  0.71238343     0.02900
H1068       H  0.10944088  0.07300594  0.74442575     0.06400
H1069       H  0.13095646  0.07891433  0.63197795     0.05300
H1070       H  0.15762479  0.06424493  0.64794961    -0.00400
H1071       H  0.13577017  0.08375790  0.66517183     0.01100
H1072       H  0.06967384  0.98556887  0.69540733     0.04700
H1073       H  0.07068943  0.97476478  0.66391338     0.06700
H1074       H  0.04577292  0.99637567  0.67319100     0.07500
C1075       C  0.06808746  0.91914362  0.61680492    -0.22100
C1076       C  0.04368299  0.90829514  0.62177448     0.09900
C1077       C  0.02023629  0.91939075  0.61301892     0.10300
C1078       C  0.02140666  0.94293858  0.60337364    -0.17000
C1079       C  0.04581635  0.95493684  0.60106623    -0.27400
C1080       C  0.06945762  0.94189201  0.60576860     0.18600
C1081       C  0.04264995  0.88769803  0.63959209     0.12600
C1082       C  0.99404090  0.90648920  0.61456984    -0.11800
H1083       H  0.00321210  0.95249512  0.59951355     0.12900
C1084       C  0.09660719  0.95216649  0.60067591    -0.22600
H1085       H  0.08617279  0.91030463  0.62261669     0.08500
C1086       C  0.04289432  0.86368276  0.63163233     0.04800
C1087       C  0.03634483  0.84545039  0.64892534    -0.19900
C1088       C  0.02879968  0.85089113  0.67375093    -0.12100
C1089       C  0.03279564  0.87451839  0.68240727     0.13500
C1090       C  0.03942312  0.89264102  0.66523077    -0.22600
C1091       C  0.04850457  0.85748967  0.60467666    -0.05600
H1092       H  0.03334158  0.82741026  0.64210398     0.15100
C1093       C  0.02663387  0.88153501  0.70904434    -0.15800
H1094       H  0.04017920  0.91102150  0.67159090     0.09400
H1095       H  0.10781680  0.93975760  0.58844273     0.07200
H1096       H  0.10752972  0.95446147  0.61865239     0.08500
H1097       H  0.09576541  0.96961761  0.59082215     0.07500
H1098       H  0.98959376  0.90162085  0.63432290     0.02400
H1099       H  0.99485662  0.88987671  0.60328363     0.02900
H1100       H  0.97763651  0.91754578  0.60704414     0.06400
H1101       H  0.04783709  0.83789537  0.60152211     0.05300
H1102       H  0.06856186  0.86406210  0.59948750    -0.00400
H1103       H  0.03361989  0.86594262  0.59218316     0.01100
H1104       H  0.04420993  0.89043304  0.71750706     0.04700
H1105       H  0.02154908  0.86585428  0.72089148     0.06700
H1106       H  0.00967420  0.89411080  0.70922459     0.07500
C1107       C  0.37957393  0.19665345  0.19273009    -0.22100
C1108       C  0.37562735  0.17305107  0.20056158     0.09900
C1109       C  0.38541753  0.15419110  0.18562637     0.10300
C1110       C  0.39673876  0.15928608  0.16206260    -0.17000
C1111       C  0.39812102  0.18280462  0.15295039    -0.27400
C1112       C  0.39085402  0.20182234  0.16917504     0.18600
C1113       C  0.35828228  0.16811487  0.22255657     0.12600
C1114       C  0.38265128  0.12857824  0.19401134    -0.11800
H1115       H  0.40255069  0.14468603  0.14994549     0.12900
C1116       C  0.39467238  0.22763425  0.16177291    -0.22600
H1117       H  0.37256185  0.21104322  0.20454585     0.08500
C1118       C  0.36854986  0.16405545  0.24683628     0.04800
C1119       C  0.35189409  0.15432940  0.26548103    -0.19900
C1120       C  0.32536158  0.14823727  0.26017732    -0.12100
C1121       C  0.31456674  0.15471352  0.23659655     0.13500
C1122       C  0.33110950  0.16473134  0.21816647    -0.22600
C1123       C  0.39733562  0.16872470  0.25258192    -0.05600
H1124       H  0.36033508  0.14904919  0.28337882     0.15100
C1125       C  0.28626136  0.14923009  0.22954384    -0.15800
H1126       H  0.32314895  0.16825140  0.19959134     0.09400
H1127       H  0.39055904  0.23983824  0.17771537     0.07200
H1128       H  0.38099410  0.23262528  0.14634540     0.08500
H1129       H  0.41549659  0.23066075  0.15579145     0.07500
H1130       H  0.36138249  0.12389714  0.19630076     0.02400
H1131       H  0.39300390  0.12598429  0.21221400     0.02900
H1132       H  0.39141659  0.11606262  0.18020670     0.06400
H1133       H  0.40223360  0.16439394  0.27242021     0.05300
H1134       H  0.40195161  0.18787936  0.24930484    -0.00400
H1135       H  0.41007040  0.15768779  0.24026028     0.01100
H1136       H  0.27619132  0.16597260  0.22382911     0.04700
H1137       H  0.27483691  0.14130396  0.24527887     0.06700
H1138       H  0.28585790  0.13652793  0.21354386     0.07500
C1139       C  0.31666694  0.22833738  0.07943677    -0.22100
C1140       C  0.32257005  0.25121108  0.07036765     0.09900
C1141       C  0.34887754  0.25667588  0.06281051     0.10300
C1142       C  0.36899477  0.23971643  0.06653401    -0.17000
C1143       C  0.36323527  0.21742896  0.07717352    -0.27400
C1144       C  0.33659969  0.21125075  0.08252731     0.18600
C1145       C  0.30113033  0.26928880  0.06915005     0.12600
C1146       C  0.35589673  0.28045688  0.05118420    -0.11800
H1147       H  0.38943282  0.24435474  0.06248201     0.12900
C1148       C  0.32920971  0.18668000  0.09192655    -0.22600
H1149       H  0.29653179  0.22408675  0.08497037     0.08500
C1150       C  0.27973006  0.26719586  0.05210220     0.04800
C1151       C  0.26336035  0.28702385  0.04796388    -0.19900
C1152       C  0.26959446  0.30926379  0.05867281    -0.12100
C1153       C  0.28805382  0.31015732  0.07858882     0.13500
C1154       C  0.30344899  0.28998446  0.08386051    -0.22600
C1155       C  0.27575082  0.24512433  0.03634434    -0.05600
H1156       H  0.24890554  0.28636849  0.03287254     0.15100
C1157       C  0.29393533  0.33298451  0.09242801    -0.15800
H1158       H  0.31895793  0.29115616  0.09794234     0.09400
H1159       H  0.30740410  0.18454694  0.09386957     0.07200
H1160       H  0.33820666  0.18328585  0.11060585     0.08500
H1161       H  0.33627633  0.17304207  0.07841121     0.07500
H1162       H  0.35315729  0.29502499  0.06499963     0.02400
H1163       H  0.34308766  0.28382715  0.03459975     0.02900
H1164       H  0.37686623  0.28101856  0.04486699     0.06400
H1165       H  0.25910335  0.24722774  0.02284823     0.05300
H1166       H  0.27102542  0.22961493  0.04852655    -0.00400
H1167       H  0.29399535  0.24138993  0.02540793     0.01100
H1168       H  0.29103396  0.33011674  0.11288641     0.04700
H1169       H  0.28070272  0.34771137  0.08644265     0.06700
H1170       H  0.31479483  0.33848956  0.08899173     0.07500
C1171       C  0.37641361  0.05102899  0.18681137    -0.22100
C1172       C  0.37077923  0.03328111  0.20468378     0.09900
C1173       C  0.37743542  0.00942193  0.19979577     0.10300
C1174       C  0.38998818  0.00381104  0.17715417    -0.17000
C1175       C  0.39476980  0.02127600  0.15856913    -0.27400
C1176       C  0.38782138  0.04530600  0.16353199     0.18600
C1177       C  0.35508219  0.03991622  0.22693726     0.12600
C1178       C  0.37005034  0.98973949  0.21785119    -0.11800
H1179       H  0.39506379  0.98535682  0.17353018     0.12900
C1180       C  0.39058192  0.06468787  0.14401836    -0.22600
H1181       H  0.37061668  0.06928249  0.19067167     0.08500
C1182       C  0.36716267  0.04705893  0.24962329     0.04800
C1183       C  0.35154855  0.05770753  0.26823369    -0.19900
C1184       C  0.32454161  0.06226257  0.26400756    -0.12100
C1185       C  0.31209069  0.05286581  0.24235456     0.13500
C1186       C  0.32755856  0.04163181  0.22411359    -0.22600
C1187       C  0.39668820  0.04522812  0.25336950    -0.05600
H1188       H  0.36104662  0.06523670  0.28472743     0.15100
C1189       C  0.28304780  0.05630985  0.23689693    -0.15800
H1190       H  0.31837322  0.03573349  0.20674376     0.09400
H1191       H  0.38272482  0.08201370  0.15077120     0.07200
H1192       H  0.37929889  0.05972203  0.12685339     0.08500
H1193       H  0.41179005  0.06738488  0.13931507     0.07500
H1194       H  0.34822339  0.98940069  0.22051503     0.02400
H1195       H  0.37978339  0.99271976  0.23627342     0.02900
H1196       H  0.37617881  0.97194568  0.21080601     0.06400
H1197       H  0.40286294  0.05202031  0.27209438     0.05300
H1198       H  0.40712595  0.05588377  0.23879009    -0.00400
H1199       H  0.40296916  0.02633567  0.25197197     0.01100
H1200       H  0.28067604  0.06715475  0.21956071     0.04700
H1201       H  0.27247530  0.06537892  0.25237700     0.06700
H1202       H  0.27347508  0.03862919  0.23400668     0.07500
C1203       C  0.37469087  0.92035394  0.11099017    -0.22100
C1204       C  0.35938946  0.91845613  0.08913223     0.09900
C1205       C  0.36110798  0.93667524  0.07059455     0.10300
C1206       C  0.37776684  0.95641626  0.07478238    -0.17000
C1207       C  0.39284899  0.95831963  0.09680676    -0.27400
C1208       C  0.39190488  0.93963036  0.11476775     0.18600
C1209       C  0.34190898  0.89726260  0.08623119     0.12600
C1210       C  0.34509663  0.93645620  0.04662401    -0.11800
H1211       H  0.37792868  0.97097851  0.06132150     0.12900
C1212       C  0.40860901  0.93950128  0.13831753    -0.22600
H1213       H  0.37307559  0.90672502  0.12539863     0.08500
C1214       C  0.35250316  0.87404190  0.08388946     0.04800
C1215       C  0.33569347  0.85523565  0.07684300    -0.19900
C1216       C  0.30939261  0.85961801  0.06960548    -0.12100
C1217       C  0.29815633  0.88214917  0.07468597     0.13500
C1218       C  0.31445414  0.90057121  0.08376017    -0.22600
C1219       C  0.38186506  0.86940156  0.08602059    -0.05600
H1220       H  0.34419088  0.83790796  0.07279402     0.15100
C1221       C  0.26983089  0.88793200  0.06826163    -0.15800
H1222       H  0.30620760  0.91823511  0.08641393     0.09400
H1223       H  0.41982921  0.92251671  0.13940268     0.07200
H1224       H  0.39559650  0.94086287  0.15505909     0.08500
H1225       H  0.42342257  0.95417059  0.13881734     0.07500
H1226       H  0.32996627  0.95076443  0.04738295     0.02400
H1227       H  0.33502141  0.91918872  0.04306150     0.02900
H1228       H  0.35821722  0.94010090  0.03035131     0.06400
H1229       H  0.38678551  0.85057013  0.08155888     0.05300
H1230       H  0.38883364  0.87290449  0.10542459    -0.00400
H1231       H  0.39284699  0.88102738  0.07265194     0.01100
H1232       H  0.25946475  0.89427416  0.08536416     0.04700
H1233       H  0.25879232  0.87226679  0.06093690     0.06700
H1234       H  0.26934204  0.90223777  0.05379788     0.07500
C1235       C  0.29131349  0.05562581  0.86392375    -0.22100
C1236       C  0.31306408  0.04070205  0.85979754     0.09900
C1237       C  0.32076459  0.03526617  0.83498049     0.10300
C1238       C  0.30847782  0.04710390  0.81485564    -0.17000
C1239       C  0.28857616  0.06400069  0.81915723    -0.27400
C1240       C  0.27879586  0.06722418  0.84380535     0.18600
C1241       C  0.32925841  0.03296022  0.88152467     0.12600
C1242       C  0.34281121  0.01788383  0.82989692    -0.11800
H1243       H  0.31595971  0.04473407  0.79594733     0.12900
C1244       C  0.25639718  0.08405188  0.84954845    -0.22600
H1245       H  0.28506093  0.05931335  0.88300282     0.08500
C1246       C  0.35214641  0.04584339  0.88871867     0.04800
C1247       C  0.36812858  0.03709601  0.90822089    -0.19900
C1248       C  0.36193085  0.01563116  0.92062759    -0.12100
C1249       C  0.33827439  0.00321899  0.91395864     0.13500
C1250       C  0.32223580  0.01216637  0.89451284    -0.22600
C1251       C  0.35986926  0.06872581  0.87563164    -0.05600
H1252       H  0.38600797  0.04677117  0.91329152     0.15100
C1253       C  0.32937884  0.98081212  0.92735299    -0.15800
H1254       H  0.30440600  0.00263360  0.88899864     0.09400
H1255       H  0.26369385  0.09873635  0.86176464     0.07200
H1256       H  0.24041385  0.07418373  0.85951039     0.08500
H1257       H  0.24759839  0.09201414  0.83238691     0.07500
H1258       H  0.33759920  0.00018782  0.83797582     0.02400
H1259       H  0.36155428  0.02428568  0.83856121     0.02900
H1260       H  0.34625636  0.01558876  0.80944146     0.06400
H1261       H  0.37858859  0.07618948  0.88334629     0.05300
H1262       H  0.34398890  0.08218851  0.87803442    -0.00400
H1263       H  0.36293359  0.06547967  0.85529230     0.01100
H1264       H  0.30933446  0.97499676  0.92113728     0.04700
H1265       H  0.32852127  0.98405270  0.94791086     0.06700
H1266       H  0.34313271  0.96591586  0.92329569     0.07500
C1267       C  0.38923735  0.91036229  0.94033362    -0.22100
C1268       C  0.38279241  0.90061122  0.96374532     0.09900
C1269       C  0.39101876  0.91272492  0.98579902     0.10300
C1270       C  0.40107958  0.93622389  0.98394446    -0.17000
C1271       C  0.40401601  0.94727776  0.96041613    -0.27400
C1272       C  0.40050792  0.93323123  0.93844631     0.18600
C1273       C  0.36370627  0.88023746  0.96506010     0.12600
C1274       C  0.38784610  0.90130699  0.01127868    -0.11800
H1275       H  0.40439415  0.94656793  0.00086152     0.12900
C1276       C  0.40731204  0.94240102  0.91259603    -0.22600
H1277       H  0.38413538  0.90063534  0.92338969     0.08500
C1278       C  0.33630056  0.88401902  0.96088259     0.04800
C1279       C  0.31787029  0.86675231  0.96897374    -0.19900
C1280       C  0.32616907  0.84629691  0.98195880    -0.12100
C1281       C  0.35360327  0.84111569  0.98296853     0.13500
C1282       C  0.37208802  0.85808712  0.97435184    -0.22600
C1283       C  0.32628795  0.90720337  0.95006923    -0.05600
H1284       H  0.29688874  0.87084111  0.96839182     0.15100
C1285       C  0.36384768  0.81900459  0.99575341    -0.15800
H1286       H  0.39308713  0.85487574  0.97696909     0.09400
H1287       H  0.38895686  0.94415700  0.90120751     0.07200
H1288       H  0.42081044  0.92960935  0.90321026     0.08500
H1289       H  0.41767932  0.95990680  0.91316130     0.07500
H1290       H  0.39957069  0.88460959  0.01212678     0.02400
H1291       H  0.36667672  0.89699498  0.01478275     0.02900
H1292       H  0.39513417  0.91314111  0.02654025     0.06400
H1293       H  0.30430175  0.90753135  0.94898342     0.05300
H1294       H  0.33410135  0.90967294  0.93075884    -0.00400
H1295       H  0.33281758  0.92238877  0.96200179     0.01100
H1296       H  0.37668433  0.80899002  0.98257016     0.04700
H1297       H  0.34757295  0.80689500  0.00177673     0.06700
H1298       H  0.37565206  0.82411798  0.01255430     0.07500
C1299       C  0.35357467  0.25998611  0.98291484    -0.22100
C1300       C  0.36067982  0.27944702  0.96763031     0.09900
C1301       C  0.38212144  0.27719820  0.95092322     0.10300
C1302       C  0.39562412  0.25534393  0.94948564    -0.17000
C1303       C  0.38793758  0.23547357  0.96405319    -0.27400
C1304       C  0.36655643  0.23790575  0.98106716     0.18600
C1305       C  0.34467778  0.30163127  0.96915003     0.12600
C1306       C  0.38983337  0.29744755  0.93374848    -0.11800
H1307       H  0.41138948  0.25331036  0.93584042     0.12900
C1308       C  0.35546674  0.21736807  0.99615861    -0.22600
H1309       H  0.33684842  0.26169696  0.99554378     0.08500
C1310       C  0.31888051  0.30280756  0.95884752     0.04800
C1311       C  0.30206303  0.32162757  0.96583232    -0.19900
C1312       C  0.31023523  0.33865904  0.98361984    -0.12100
C1313       C  0.33727342  0.33938301  0.99072029     0.13500
C1314       C  0.35416779  0.32073842  0.98359630    -0.22600
C1315       C  0.30859915  0.28344205  0.94175336    -0.05600
H1316       H  0.28136346  0.32098650  0.96034064     0.15100
C1317       C  0.34772242  0.35808545  0.00845980    -0.15800
H1318       H  0.37419307  0.32017044  0.99099747     0.09400
H1319       H  0.33435759  0.21447018  0.99097997     0.07200
H1320       H  0.35657362  0.22169596  0.01646581     0.08500
H1321       H  0.36602419  0.20036515  0.99313238     0.07500
H1322       H  0.39582090  0.31322580  0.94503794     0.02400
H1323       H  0.37273345  0.30227958  0.92162418     0.02900
H1324       H  0.40667607  0.29257770  0.92138927     0.06400
H1325       H  0.28810222  0.28717990  0.93523615     0.05300
H1326       H  0.30838122  0.26604601  0.95176566    -0.00400
H1327       H  0.32156381  0.28209110  0.92498479     0.01100
H1328       H  0.35404039  0.34952871  0.02631684     0.04700
H1329       H  0.33258515  0.37181024  0.01275187     0.06700
H1330       H  0.36501431  0.36725237  0.99981648     0.07500
C1331       C  0.37744187  0.15122087  0.86371851    -0.22100
C1332       C  0.37147141  0.17063473  0.84803539     0.09900
C1333       C  0.37821067  0.19388913  0.85572400     0.10300
C1334       C  0.38933345  0.19731715  0.87963047    -0.17000
C1335       C  0.39348232  0.17807329  0.89635774    -0.27400
C1336       C  0.38838347  0.15454946  0.88775419     0.18600
C1337       C  0.35418958  0.16602236  0.82602880     0.12600
C1338       C  0.37322468  0.21507012  0.83891052    -0.11800
H1339       H  0.39385605  0.21537005  0.88561945     0.12900
C1340       C  0.39296490  0.13289607  0.90397183    -0.22600
H1341       H  0.37203786  0.13337470  0.85762313     0.08500
C1342       C  0.36290140  0.15222170  0.80552451     0.04800
C1343       C  0.34401674  0.14103926  0.79003894    -0.19900
C1344       C  0.31678223  0.14320230  0.79499345    -0.12100
C1345       C  0.30820695  0.15930267  0.81363386     0.13500
C1346       C  0.32708827  0.17081148  0.82874493    -0.22600
C1347       C  0.39200211  0.14831852  0.80089371    -0.05600
H1348       H  0.35049504  0.12854658  0.77579984     0.15100
C1349       C  0.27917498  0.16225453  0.81947613    -0.15800
H1350       H  0.32054437  0.18150100  0.84450645     0.09400
H1351       H  0.38737507  0.11618037  0.89414086     0.07200
H1352       H  0.38081523  0.13399578  0.92129698     0.08500
H1353       H  0.41429932  0.13160795  0.90887544     0.07500
H1354       H  0.35172039  0.21672540  0.83490665     0.02400
H1355       H  0.38407736  0.21275415  0.82095431     0.02900
H1356       H  0.38003953  0.23200559  0.84769255     0.06400
H1357       H  0.39538872  0.13717982  0.78396197     0.05300
H1358       H  0.40120386  0.13916019  0.81719440    -0.00400
H1359       H  0.40196946  0.16582228  0.79797852     0.01100
H1360       H  0.27596875  0.17519103  0.83495811     0.04700
H1361       H  0.27042813  0.14486503  0.82526245     0.06700
H1362       H  0.26859466  0.16896268  0.80261647     0.07500
C1363       C  0.58230074  0.33427658  0.07189945    -0.22100
C1364       C  0.59394127  0.31376574  0.08208018     0.09900
C1365       C  0.62077930  0.31473466  0.08978367     0.10300
C1366       C  0.63628502  0.33492380  0.08376236    -0.17000
C1367       C  0.62573296  0.35358833  0.06927013    -0.27400
C1368       C  0.59786548  0.35433524  0.06574730     0.18600
C1369       C  0.57933852  0.29057485  0.08087910     0.12600
C1370       C  0.63349406  0.29376026  0.10273817    -0.11800
H1371       H  0.65752857  0.33432784  0.08680559     0.12900
C1372       C  0.58493490  0.37464556  0.05191658    -0.22600
H1373       H  0.56153330  0.33387396  0.06663457     0.08500
C1374       C  0.56131930  0.28328874  0.09962578     0.04800
C1375       C  0.55136600  0.25973421  0.09937462    -0.19900
C1376       C  0.55887486  0.24334525  0.08068305    -0.12100
C1377       C  0.57556823  0.25122315  0.06103678     0.13500
C1378       C  0.58529049  0.27481779  0.06117245    -0.22600
C1379       C  0.55361021  0.30001262  0.12044541    -0.05600
H1380       H  0.53913553  0.25355706  0.11482374     0.15100
C1381       C  0.58498998  0.23416829  0.04114752    -0.15800
H1382       H  0.59895932  0.28058537  0.04665064     0.09400
H1383       H  0.56879932  0.38216731  0.06359731     0.07200
H1384       H  0.57642985  0.36806368  0.03393784     0.08500
H1385       H  0.59925528  0.38922758  0.04772422     0.07500
H1386       H  0.63290506  0.27784549  0.09034745     0.02400
H1387       H  0.62266322  0.28969417  0.12038716     0.02900
H1388       H  0.65453994  0.29746380  0.10758237     0.06400
H1389       H  0.53960194  0.29143933  0.13381453     0.05300
H1390       H  0.54384067  0.31601436  0.11237330    -0.00400
H1391       H  0.57153233  0.30567666  0.13104996     0.01100
H1392       H  0.59789024  0.24318037  0.02710919     0.04700
H1393       H  0.56770116  0.22640003  0.03115671     0.06700
H1394       H  0.59652303  0.21953104  0.04996335     0.07500
C1395       C  0.62985851  0.18560049  0.16081327    -0.22100
C1396       C  0.62418295  0.16432873  0.17340330     0.09900
C1397       C  0.60305004  0.14969371  0.16502440     0.10300
C1398       C  0.58761678  0.15712175  0.14449349    -0.17000
C1399       C  0.59260280  0.17892123  0.13218070    -0.27400
C1400       C  0.61452429  0.19316545  0.14031018     0.18600
C1401       C  0.64019546  0.15812055  0.19574157     0.12600
C1402       C  0.59616064  0.12623099  0.17739971    -0.11800
H1403       H  0.57119252  0.14595725  0.13845523     0.12900
C1404       C  0.62254112  0.21619745  0.12754426    -0.22600
H1405       H  0.64631333  0.19648925  0.16732517     0.08500
C1406       C  0.66359130  0.14446844  0.19394191     0.04800
C1407       C  0.67498005  0.13524425  0.21593981    -0.19900
C1408       C  0.66322796  0.13906307  0.23945784    -0.12100
C1409       C  0.64171516  0.15498452  0.24139523     0.13500
C1410       C  0.63039060  0.16433573  0.21945748    -0.22600
C1411       C  0.67595012  0.13799196  0.16913522    -0.05600
H1412       H  0.69139296  0.12288617  0.21445064     0.15100
C1413       C  0.62920574  0.16093779  0.26625331    -0.15800
H1414       H  0.61281207  0.17533318  0.22078747     0.09400
H1415       H  0.64146466  0.22341683  0.13514731     0.07200
H1416       H  0.60729310  0.23009562  0.13064665     0.08500
H1417       H  0.62542939  0.21313550  0.10712590     0.07500
H1418       H  0.60941926  0.12170250  0.19331983     0.02400
H1419       H  0.59763308  0.11169135  0.16337245     0.02900
H1420       H  0.57552893  0.12686840  0.18458957     0.06400
H1421       H  0.67581964  0.11828121  0.16689560     0.05300
H1422       H  0.69677890  0.14447761  0.16871633    -0.00400
H1423       H  0.66544187  0.14588664  0.15283832     0.01100
H1424       H  0.62933572  0.18060214  0.26890137     0.04700
H1425       H  0.63999729  0.15286766  0.28231705     0.06700
H1426       H  0.60839376  0.15440212  0.26653876     0.07500
C1427       C  0.58144216  0.26772361  0.97821445    -0.22100
C1428       C  0.60610917  0.27057221  0.96615757     0.09900
C1429       C  0.61539046  0.25245139  0.95016514     0.10300
C1430       C  0.59987343  0.23202463  0.94654900    -0.17000
C1431       C  0.57477104  0.22935473  0.95777865    -0.27400
C1432       C  0.56538973  0.24745781  0.97384120     0.18600
C1433       C  0.62232920  0.29227572  0.97098053     0.12600
C1434       C  0.64118525  0.25494738  0.93605412    -0.11800
H1435       H  0.60721953  0.21816908  0.93421146     0.12900
C1436       C  0.53813782  0.24607077  0.98524390    -0.22600
H1437       H  0.57456857  0.28160222  0.99075528     0.08500
C1438       C  0.61433176  0.31520613  0.96293766     0.04800
C1439       C  0.62897921  0.33531242  0.97068081    -0.19900
C1440       C  0.65136143  0.33287724  0.98618665    -0.12100
C1441       C  0.66109822  0.30977172  0.99140296     0.13500
C1442       C  0.64616558  0.28979762  0.98426018    -0.22600
C1443       C  0.58999226  0.31854877  0.94690585    -0.05600
H1444       H  0.62134534  0.35303327  0.96694402     0.15100
C1445       C  0.68584929  0.30576171  0.00668461    -0.15800
H1446       H  0.65257741  0.27219470  0.99012880     0.09400
H1447       H  0.53377164  0.26203328  0.99685721     0.07200
H1448       H  0.53645937  0.23007247  0.99744723     0.08500
H1449       H  0.52301921  0.24492791  0.97009994     0.07500
H1450       H  0.65812062  0.25559885  0.94932913     0.02400
H1451       H  0.64093391  0.27153828  0.92460651     0.02900
H1452       H  0.64453490  0.23968107  0.92316428     0.06400
H1453       H  0.58706864  0.33759490  0.94179299     0.05300
H1454       H  0.57208111  0.31240666  0.95714073    -0.00400
H1455       H  0.59202792  0.30814773  0.92927779     0.01100
H1456       H  0.68070113  0.29654338  0.02451924     0.04700
H1457       H  0.69632422  0.32264924  0.01125578     0.06700
H1458       H  0.69975695  0.29443201  0.99586807     0.07500
C1459       C  0.58920156  0.15897402  0.79820816    -0.22100
C1460       C  0.60101069  0.16435077  0.82134383     0.09900
C1461       C  0.62879429  0.16253642  0.82401690     0.10300
C1462       C  0.64373589  0.15253983  0.80446483    -0.17000
C1463       C  0.63130906  0.14404019  0.78261539    -0.27400
C1464       C  0.60410333  0.14888018  0.77873783     0.18600
C1465       C  0.58386755  0.16832596  0.84352078     0.12600
C1466       C  0.64235350  0.16973133  0.84810773    -0.11800
H1467       H  0.66454570  0.14870259  0.80749811     0.12900
C1468       C  0.58989433  0.14130031  0.75514525    -0.22600
H1469       H  0.56794561  0.16089193  0.79600997     0.08500
C1470       C  0.57395018  0.19100527  0.84957054     0.04800
C1471       C  0.56063967  0.19413178  0.87244500    -0.19900
C1472       C  0.55758485  0.17523893  0.88979280    -0.12100
C1473       C  0.56610453  0.15211070  0.88286362     0.13500
C1474       C  0.57890789  0.14896178  0.85965625    -0.22600
C1475       C  0.57852235  0.21206984  0.83247408    -0.05600
H1476       H  0.55396975  0.21185760  0.87750459     0.15100
C1477       C  0.56347788  0.13102367  0.90031239    -0.15800
H1478       H  0.58637516  0.13149688  0.85458693     0.09400
H1479       H  0.58023578  0.15704944  0.74643035     0.07200
H1480       H  0.57449674  0.12777510  0.75980912     0.08500
H1481       H  0.60356846  0.13355076  0.74106146     0.07500
H1482       H  0.63476866  0.15878494  0.86396517     0.02400
H1483       H  0.63844155  0.18886746  0.85197999     0.02900
H1484       H  0.66415317  0.16723964  0.84704310     0.06400
H1485       H  0.56964789  0.22864046  0.84014309     0.05300
H1486       H  0.56944585  0.20852249  0.81382849    -0.00400
H1487       H  0.60013175  0.21515964  0.83009816     0.01100
H1488       H  0.57189503  0.11456186  0.89195701     0.04700
H1489       H  0.54223019  0.12754319  0.90436976     0.06700
H1490       H  0.57429812  0.13459461  0.91810421     0.07500
C1491       C  0.56942562  0.91392259  0.93951429    -0.22100
C1492       C  0.59010910  0.91217486  0.95696349     0.09900
C1493       C  0.59534602  0.93163824  0.97328046     0.10300
C1494       C  0.57895017  0.95186180  0.97245745    -0.17000
C1495       C  0.55849467  0.95368147  0.95471707    -0.27400
C1496       C  0.55352035  0.93430528  0.93825561     0.18600
C1497       C  0.60510625  0.88943345  0.95886637     0.12600
C1498       C  0.61917536  0.93188935  0.99042314    -0.11800
H1499       H  0.58366682  0.96717966  0.98410322     0.12900
C1500       C  0.53186936  0.93479645  0.91869811    -0.22600
H1501       H  0.56556267  0.89914892  0.92685522     0.08500
C1502       C  0.59298595  0.86796478  0.96724764     0.04800
C1503       C  0.60904951  0.84852606  0.97362048    -0.19900
C1504       C  0.63670423  0.85111764  0.97502013    -0.12100
C1505       C  0.64868913  0.87118095  0.96359088     0.13500
C1506       C  0.63261840  0.88978119  0.95476644    -0.22600
C1507       C  0.56368804  0.86543911  0.97243327    -0.05600
H1508       H  0.59988460  0.83297369  0.98223142     0.15100
C1509       C  0.67829551  0.87451359  0.96278823    -0.15800
H1510       H  0.64186258  0.90563985  0.94696108     0.09400
H1511       H  0.51864092  0.91908343  0.92127562     0.07200
H1512       H  0.54080822  0.93402648  0.89966354     0.08500
H1513       H  0.51935176  0.95097388  0.91991561     0.07500
H1514       H  0.62050417  0.91486558  0.00096400     0.02400
H1515       H  0.61839588  0.94686466  0.00406173     0.02900
H1516       H  0.63748073  0.93414032  0.97914768     0.06400
H1517       H  0.56070994  0.85998787  0.99231094     0.05300
H1518       H  0.55517034  0.85144203  0.96002740    -0.00400
H1519       H  0.55232864  0.88204736  0.96966293     0.01100
H1520       H  0.68472171  0.87688724  0.94299851     0.04700
H1521       H  0.68910547  0.85904968  0.97068307     0.06700
H1522       H  0.68394226  0.89064365  0.97369645     0.07500
C1523       C  0.62910227  0.04163687  0.82912612    -0.22100
C1524       C  0.60236153  0.03622636  0.82470339     0.09900
C1525       C  0.59152806  0.04012091  0.80061037     0.10300
C1526       C  0.60732249  0.05081794  0.78189656    -0.17000
C1527       C  0.63344344  0.05830753  0.78702827    -0.27400
C1528       C  0.64468211  0.05286704  0.81073505     0.18600
C1529       C  0.58585110  0.02843286  0.84632298     0.12600
C1530       C  0.56295387  0.03419738  0.79515056    -0.11800
H1531       H  0.59842656  0.05560104  0.76404051     0.12900
C1532       C  0.67224710  0.06071636  0.81804185    -0.22600
H1533       H  0.63740953  0.03847686  0.84763700     0.08500
C1534       C  0.58545556  0.00453967  0.85434845     0.04800
C1535       C  0.57252406  0.99858654  0.87680411    -0.19900
C1536       C  0.56011173  0.01599012  0.89198943    -0.12100
C1537       C  0.55912843  0.03985197  0.88287270     0.13500
C1538       C  0.57214370  0.04568830  0.86023001    -0.22600
C1539       C  0.59912245  0.98536867  0.83941040    -0.05600
H1540       H  0.57291238  0.98009199  0.88275785     0.15100
C1541       C  0.54489756  0.05943319  0.89669892    -0.15800
H1542       H  0.57235083  0.06402355  0.85365864     0.09400
H1543       H  0.68386732  0.04496234  0.82418981     0.07200
H1544       H  0.67110317  0.07361957  0.83382478     0.08500
H1545       H  0.68314542  0.06933223  0.80238384     0.07500
H1546       H  0.54986207  0.04458066  0.80778304     0.02400
H1547       H  0.55939038  0.01484265  0.79824676     0.02900
H1548       H  0.55752519  0.03852206  0.77543584     0.06400
H1549       H  0.59677594  0.96748623  0.84820946     0.05300
H1550       H  0.62064365  0.98938759  0.83808333    -0.00400
H1551       H  0.59056027  0.98456316  0.82020254     0.01100
H1552       H  0.54540537  0.07654383  0.88613954     0.04700
H1553       H  0.55444146  0.06263834  0.91519838     0.06700
H1554       H  0.52374350  0.05446139  0.89928687     0.07500
C1555       C  0.59241585  0.04596744  0.18116493    -0.22100
C1556       C  0.59175284  0.02964560  0.20119368     0.09900
C1557       C  0.57841870  0.00769142  0.19828491     0.10300
C1558       C  0.56665487  0.00230317  0.17508300    -0.17000
C1559       C  0.56769101  0.01834123  0.15464446    -0.27400
C1560       C  0.58055010  0.04065663  0.15791292     0.18600
C1561       C  0.60577786  0.03621997  0.22460673     0.12600
C1562       C  0.57642452  0.98954780  0.21914987    -0.11800
H1563       H  0.55670276  0.98523736  0.17294154     0.12900
C1564       C  0.58284588  0.05855949  0.13686317    -0.22600
H1565       H  0.60268942  0.06285466  0.18368500     0.08500
C1566       C  0.63291950  0.03106207  0.22792073     0.04800
C1567       C  0.64715069  0.04282994  0.24691225    -0.19900
C1568       C  0.63476382  0.05979996  0.26220537    -0.12100
C1569       C  0.60689992  0.06225962  0.26112981     0.13500
C1570       C  0.59269569  0.05057539  0.24211602    -0.22600
C1571       C  0.64717891  0.01446770  0.21035231    -0.05600
H1572       H  0.66851678  0.04095299  0.24779677     0.15100
C1573       C  0.59219812  0.07876453  0.27846527    -0.15800
H1574       H  0.57167762  0.05397575  0.23989753     0.09400
H1575       H  0.59498874  0.07426705  0.14236868     0.07200
H1576       H  0.56287532  0.06511410  0.13157253     0.08500
H1577       H  0.59250412  0.05021952  0.12035361     0.07500
H1578       H  0.55522688  0.98604076  0.22343854     0.02400
H1579       H  0.58624972  0.99548350  0.23672526     0.02900
H1580       H  0.58582774  0.97261777  0.21311509     0.06400
H1581       H  0.66841431  0.01256572  0.21550938     0.05300
H1582       H  0.64609398  0.02142199  0.19083723    -0.00400
H1583       H  0.63781369  0.99650450  0.21110353     0.01100
H1584       H  0.58289402  0.09333301  0.26741216     0.04700
H1585       H  0.60542469  0.08683733  0.29284699     0.06700
H1586       H  0.57647265  0.06859326  0.28845697     0.07500
C1587       C  0.59002994  0.86559274  0.07732958    -0.22100
C1588       C  0.60020198  0.88811342  0.08366492     0.09900
C1589       C  0.62794888  0.89182618  0.08337280     0.10300
C1590       C  0.64466412  0.87372990  0.07432329    -0.17000
C1591       C  0.63417172  0.85218632  0.06513922    -0.27400
C1592       C  0.60672361  0.84755537  0.06819423     0.18600
C1593       C  0.58171657  0.90847149  0.08751246     0.12600
C1594       C  0.63969686  0.91554796  0.09087675    -0.11800
H1595       H  0.66555997  0.87750778  0.07159456     0.12900
C1596       C  0.59424141  0.82455673  0.05937750    -0.22600
H1597       H  0.56878906  0.86260681  0.07784725     0.08500
C1598       C  0.57456651  0.92361312  0.06737207     0.04800
C1599       C  0.56173133  0.94539424  0.07221646    -0.19900
C1600       C  0.55505918  0.95201841  0.09681429    -0.12100
C1601       C  0.55872233  0.93495935  0.11643184     0.13500
C1602       C  0.57283550  0.91386036  0.11167187    -0.22600
C1603       C  0.58172927  0.91719247  0.04090012    -0.05600
H1604       H  0.55849388  0.95787060  0.05694617     0.15100
C1605       C  0.54795521  0.93824974  0.14259929    -0.15800
H1606       H  0.57725671  0.90171043  0.12698270     0.09400
H1607       H  0.58054345  0.82825697  0.04349953     0.07200
H1608       H  0.58289215  0.81631333  0.07502277     0.08500
H1609       H  0.60920175  0.81140102  0.05308401     0.07500
H1610       H  0.63420175  0.91963525  0.11058976     0.02400
H1611       H  0.63207554  0.92986076  0.07838817     0.02900
H1612       H  0.66166642  0.91553647  0.08954481     0.06400
H1613       H  0.57514372  0.93100764  0.02730300     0.05300
H1614       H  0.57223476  0.89996448  0.03569660    -0.00400
H1615       H  0.60352772  0.91536456  0.03967218     0.01100
H1616       H  0.53405406  0.95344713  0.14397144     0.04700
H1617       H  0.56457617  0.94080193  0.15605196     0.06700
H1618       H  0.53654256  0.92208021  0.14815538     0.07500
C1619       C  0.03704075  0.45705924  0.24146177    -0.22100
C1620       C  0.03728075  0.48170890  0.24619385     0.09900
C1621       C  0.03417250  0.48984058  0.27105440     0.10300
C1622       C  0.02818540  0.47327540  0.29017793    -0.17000
C1623       C  0.02374891  0.44899928  0.28459288    -0.27400
C1624       C  0.03047769  0.44061848  0.26041338     0.18600
C1625       C  0.03911355  0.49835963  0.22442705     0.12600
C1626       C  0.03561640  0.51606400  0.27705008    -0.11800
H1627       H  0.02290736  0.47981851  0.30865692     0.12900
C1628       C  0.02766790  0.41468763  0.25345951    -0.22600
H1629       H  0.04019678  0.45071584  0.22246625     0.08500
C1630       C  0.06330739  0.50211877  0.21193177     0.04800
C1631       C  0.06337094  0.51392112  0.18870466    -0.19900
C1632       C  0.03964259  0.52093381  0.17681031    -0.12100
C1633       C  0.01570015  0.51923231  0.19039814     0.13500
C1634       C  0.01577491  0.50820227  0.21429350    -0.22600
C1635       C  0.08890591  0.49262483  0.22250380    -0.05600
H1636       H  0.08192659  0.51558906  0.17857879     0.15100
C1637       C  0.98999349  0.52752501  0.17915947    -0.15800
H1638       H  0.99731787  0.50584728  0.22437486     0.09400
H1639       H  0.04673265  0.40811747  0.24577938     0.07200
H1640       H  0.01196326  0.41260503  0.23897071     0.08500
H1641       H  0.02245188  0.40339214  0.26988106     0.07500
H1642       H  0.01999293  0.52578726  0.26653483     0.02400
H1643       H  0.05535337  0.52321694  0.27160540     0.02900
H1644       H  0.03269427  0.51945679  0.29740878     0.06400
H1645       H  0.10610169  0.49729761  0.21042262     0.05300
H1646       H  0.08790265  0.47287078  0.22398374    -0.00400
H1647       H  0.09241321  0.50030259  0.24144138     0.01100
H1648       H  0.98538954  0.51700850  0.16202340     0.04700
H1649       H  0.99152332  0.54673067  0.17417156     0.06700
H1650       H  0.97340236  0.52546715  0.19264926     0.07500
C1651       C  0.15492621  0.43294391  0.08859044    -0.22100
C1652       C  0.13002437  0.43291497  0.07688607     0.09900
C1653       C  0.12555896  0.41843382  0.05567380     0.10300
C1654       C  0.14672254  0.40550384  0.04556868    -0.17000
C1655       C  0.17244696  0.40773850  0.05550128    -0.27400
C1656       C  0.17637248  0.42078610  0.07793572     0.18600
C1657       C  0.11019863  0.45059230  0.08507076     0.12600
C1658       C  0.09894315  0.41787684  0.04280535    -0.11800
H1659       H  0.14388320  0.39582705  0.02813185     0.12900
C1660       C  0.20325806  0.42391113  0.08987833    -0.22600
H1661       H  0.15815106  0.44402273  0.10501818     0.08500
C1662       C  0.09366326  0.44645736  0.10586101     0.04800
C1663       C  0.07627850  0.46444734  0.11353959    -0.19900
C1664       C  0.07516806  0.48662087  0.10103671    -0.12100
C1665       C  0.09150460  0.49051144  0.07977281     0.13500
C1666       C  0.10881885  0.47237301  0.07210914    -0.22600
C1667       C  0.09457905  0.42318250  0.12003617    -0.05600
H1668       H  0.06372063  0.46126667  0.12972050     0.15100
C1669       C  0.09180868  0.51390800  0.06572553    -0.15800
H1670       H  0.12181304  0.47531026  0.05618594     0.09400
H1671       H  0.20259207  0.41729834  0.10954487     0.07200
H1672       H  0.20873269  0.44313987  0.08998779     0.08500
H1673       H  0.21904871  0.41403858  0.07994672     0.07500
H1674       H  0.09381421  0.43601013  0.03594015     0.02400
H1675       H  0.08354235  0.41172276  0.05623974     0.02900
H1676       H  0.09884220  0.40560574  0.02643203     0.06400
H1677       H  0.08017168  0.42281875  0.13579351     0.05300
H1678       H  0.11471619  0.42047841  0.12795721    -0.00400
H1679       H  0.08974076  0.40821163  0.10714600     0.01100
H1680       H  0.10674942  0.51400395  0.05041064     0.04700
H1681       H  0.09676543  0.52872183  0.07878042     0.06700
H1682       H  0.07216049  0.51711282  0.05699534     0.07500
C1683       C  0.16141116  0.50821022  0.93474979    -0.22100
C1684       C  0.16131798  0.49414901  0.95650912     0.09900
C1685       C  0.13957329  0.49547552  0.97319113     0.10300
C1686       C  0.11763754  0.50969288  0.96690941    -0.17000
C1687       C  0.11678172  0.52244734  0.94421300    -0.27400
C1688       C  0.13944541  0.52242064  0.92839347     0.18600
C1689       C  0.18296940  0.47670612  0.96090820     0.12600
C1690       C  0.13902601  0.48105656  0.99714669    -0.11800
H1691       H  0.10040948  0.50965266  0.97905416     0.12900
C1692       C  0.14072425  0.53744219  0.90488146    -0.22600
H1693       H  0.17836535  0.50742757  0.92229758     0.08500
C1694       C  0.18165617  0.45348541  0.95059121     0.04800
C1695       C  0.19770686  0.43536821  0.96067692    -0.19900
C1696       C  0.21422912  0.43989012  0.98137838    -0.12100
C1697       C  0.21807542  0.46379537  0.98926836     0.13500
C1698       C  0.20243776  0.48197229  0.97887489    -0.22600
C1699       C  0.16164147  0.44736280  0.93055358    -0.05600
H1700       H  0.19457783  0.41705144  0.95476210     0.15100
C1701       C  0.23619120  0.47000563  0.01082713    -0.15800
H1702       H  0.20372703  0.49987939  0.98650787     0.09400
H1703       H  0.16060446  0.53663757  0.89598126     0.07200
H1704       H  0.13665240  0.55637938  0.90959382     0.08500
H1705       H  0.12611954  0.53106229  0.89081091     0.07500
H1706       H  0.15578698  0.48647417  0.00945024     0.02400
H1707       H  0.14071719  0.46174181  0.99277595     0.02900
H1708       H  0.12033928  0.48376330  0.00775176     0.06400
H1709       H  0.16288514  0.42831797  0.92489582     0.05300
H1710       H  0.16525903  0.45854982  0.91365866    -0.00400
H1711       H  0.14128867  0.45070328  0.93759878     0.01100
H1712       H  0.25064647  0.48383704  0.00471774     0.04700
H1713       H  0.24755992  0.45432628  0.01757733     0.06700
H1714       H  0.22433920  0.47709516  0.02669925     0.07500
C1715       C  0.02624809  0.48710878  0.79253081    -0.22100
C1716       C  0.03340361  0.47650463  0.81540749     0.09900
C1717       C  0.03324813  0.45125728  0.81732137     0.10300
C1718       C  0.02295961  0.43748723  0.79740118    -0.17000
C1719       C  0.01310414  0.44839632  0.77559458    -0.27400
C1720       C  0.01680523  0.47332793  0.77243226     0.18600
C1721       C  0.03883310  0.49217848  0.83751424     0.12600
C1722       C  0.04310922  0.43882820  0.84062801    -0.11800
H1723       H  0.02006165  0.41844426  0.79993488     0.12900
C1724       C  0.00811448  0.48609276  0.74889010    -0.22600
H1725       H  0.02648054  0.50639500  0.79078608     0.08500
C1726       C  0.06085921  0.50784112  0.83840369     0.04800
C1727       C  0.06504930  0.52194813  0.85990523    -0.19900
C1728       C  0.04818829  0.52041244  0.88086969    -0.12100
C1729       C  0.02632329  0.50457867  0.88004886     0.13500
C1730       C  0.02139847  0.49132375  0.85808316    -0.22600
C1731       C  0.08078966  0.50876368  0.81735536    -0.05600
H1732       H  0.08234962  0.53347325  0.86086052     0.15100
C1733       C  0.00950237  0.50010120  0.90296401    -0.15800
H1734       H  0.00435379  0.47948719  0.85729729     0.09400
H1735       H  0.02499831  0.49655203  0.74118010     0.07200
H1736       H  0.99161008  0.49844176  0.75333477     0.08500
H1737       H  0.00137097  0.47351367  0.73408065     0.07500
H1738       H  0.03052216  0.44332166  0.85698151     0.02400
H1739       H  0.06386436  0.44440294  0.84450783     0.02900
H1740       H  0.04275786  0.41910798  0.83843509     0.06400
H1741       H  0.09755325  0.52099394  0.82176248     0.05300
H1742       H  0.07133955  0.51527180  0.79984104    -0.00400
H1743       H  0.08900512  0.49066506  0.81413802     0.01100
H1744       H  0.99991835  0.51690449  0.90902557     0.04700
H1745       H  0.02209185  0.49328996  0.91851161     0.06700
H1746       H  0.99372318  0.48665100  0.89928897     0.07500
C1747       C  0.83784034  0.47741233  0.97648755    -0.22100
C1748       C  0.82365189  0.46435633  0.95842370     0.09900
C1749       C  0.83001249  0.46693440  0.93290359     0.10300
C1750       C  0.85006537  0.48293633  0.92584909    -0.17000
C1751       C  0.86401162  0.49689929  0.94364815    -0.27400
C1752       C  0.85797326  0.49364994  0.96956238     0.18600
C1753       C  0.80083131  0.44948670  0.96649432     0.12600
C1754       C  0.81542832  0.45288130  0.91305516    -0.11800
H1755       H  0.85444923  0.48467894  0.90602229     0.12900
C1756       C  0.87210718  0.50713473  0.99015364    -0.22600
H1757       H  0.83267646  0.47519633  0.99611324     0.08500
C1758       C  0.80410017  0.42634782  0.97650804     0.04800
C1759       C  0.78207059  0.41441442  0.98686788    -0.19900
C1760       C  0.75700764  0.42524379  0.98735096    -0.12100
C1761       C  0.75343381  0.44737313  0.97499707     0.13500
C1762       C  0.77542107  0.45932215  0.96492526    -0.22600
C1763       C  0.83097153  0.41478532  0.97715599    -0.05600
H1764       H  0.78488843  0.39763983  0.99668228     0.15100
C1765       C  0.72693897  0.45964414  0.97401840    -0.15800
H1766       H  0.77290588  0.47691628  0.95674122     0.09400
H1767       H  0.86475791  0.50203156  0.00908025     0.07200
H1768       H  0.86882485  0.52660695  0.98791253     0.08500
H1769       H  0.89362848  0.50313055  0.98964798     0.07500
H1770       H  0.79403548  0.45741152  0.91339980     0.02400
H1771       H  0.81777665  0.43347579  0.91667105     0.02900
H1772       H  0.82305837  0.45677749  0.89391487     0.06400
H1773       H  0.83005601  0.39658605  0.98544117     0.05300
H1774       H  0.84484179  0.42573361  0.98860102    -0.00400
H1775       H  0.83882805  0.41328153  0.95775143     0.01100
H1776       H  0.72181283  0.46373486  0.95418341     0.04700
H1777       H  0.72794520  0.47658064  0.98480394     0.06700
H1778       H  0.71074543  0.44844232  0.98185771     0.07500
C1779       C  0.93161541  0.51343606  0.83538792    -0.22100
C1780       C  0.90756457  0.50832944  0.82307382     0.09900
C1781       C  0.88376729  0.51707284  0.83320821     0.10300
C1782       C  0.88419210  0.52842870  0.85672999    -0.17000
C1783       C  0.90782207  0.53077181  0.87070665    -0.27400
C1784       C  0.93199123  0.52459542  0.85912999     0.18600
C1785       C  0.90741916  0.49026578  0.80256396     0.12600
C1786       C  0.85776975  0.51311573  0.81987668    -0.11800
H1787       H  0.86557001  0.53338838  0.86537683     0.12900
C1788       C  0.95784564  0.52766846  0.87273953    -0.22600
H1789       H  0.94994535  0.50691337  0.82736338     0.08500
C1790       C  0.91348415  0.49603745  0.77742216     0.04800
C1791       C  0.91812904  0.47750421  0.76011656    -0.19900
C1792       C  0.91885926  0.45348361  0.76799930    -0.12100
C1793       C  0.90919109  0.44780836  0.79221589     0.13500
C1794       C  0.90356462  0.46624546  0.80919793    -0.22600
C1795       C  0.91694616  0.52162081  0.76936878    -0.05600
H1796       H  0.92562702  0.48197182  0.74161018     0.15100
C1797       C  0.90806218  0.42245548  0.80158465    -0.15800
H1798       H  0.89822437  0.46178975  0.82837620     0.09400
H1799       H  0.97482786  0.52181050  0.86109283     0.07200
H1800       H  0.95746094  0.51687236  0.89021193     0.08500
H1801       H  0.96090786  0.54676998  0.87752721     0.07500
H1802       H  0.85386093  0.49369607  0.81779570     0.02400
H1803       H  0.85852294  0.52149503  0.80097626     0.02900
H1804       H  0.84096422  0.52106009  0.83035165     0.06400
H1805       H  0.92181459  0.52305367  0.74907556     0.05300
H1806       H  0.93330808  0.53001760  0.78023827    -0.00400
H1807       H  0.89834132  0.53159093  0.77279054     0.01100
H1808       H  0.92223010  0.42016897  0.81739383     0.04700
H1809       H  0.91305297  0.40944869  0.78663389     0.06700
H1810       H  0.88772127  0.41833224  0.80829716     0.07500
C1811       C  0.89310615  0.51286724  0.21692216    -0.22100
C1812       C  0.91228396  0.49486583  0.21869860     0.09900
C1813       C  0.92960839  0.49144359  0.19802155     0.10300
C1814       C  0.92626721  0.50503356  0.17582950    -0.17000
C1815       C  0.90662278  0.52260697  0.17385584    -0.27400
C1816       C  0.89048439  0.52705578  0.19518288     0.18600
C1817       C  0.91449923  0.48030908  0.24244160     0.12600
C1818       C  0.95176897  0.47350775  0.19924137    -0.11800
H1819       H  0.93832913  0.50115666  0.15952508     0.12900
C1820       C  0.87042086  0.54688930  0.19582600    -0.22600
H1821       H  0.87978658  0.51578631  0.23255675     0.08500
C1822       C  0.92187600  0.49067593  0.26571305     0.04800
C1823       C  0.92789061  0.47581711  0.28633291    -0.19900
C1824       C  0.92908564  0.45082205  0.28379421    -0.12100
C1825       C  0.91894996  0.44052202  0.26148995     0.13500
C1826       C  0.91120825  0.45535384  0.24136799    -0.22600
C1827       C  0.92610560  0.51722253  0.26830829    -0.05600
H1828       H  0.93592729  0.48380590  0.30327631     0.15100
C1829       C  0.91852396  0.41391371  0.25753732    -0.15800
H1830       H  0.90444442  0.44723854  0.22401696     0.09400
H1831       H  0.87554271  0.55940267  0.21127280     0.07200
H1832       H  0.85040747  0.53940894  0.19956381     0.08500
H1833       H  0.86983730  0.55735709  0.17814116     0.07500
H1834       H  0.94361711  0.45512134  0.20016352     0.02400
H1835       H  0.96416733  0.47683667  0.21611825     0.02900
H1836       H  0.96477102  0.47461249  0.18245629     0.06400
H1837       H  0.93392645  0.52203051  0.28716320     0.05300
H1838       H  0.90710645  0.52678004  0.26576376    -0.00400
H1839       H  0.94064126  0.52351019  0.25408474     0.01100
H1840       H  0.89801746  0.40803356  0.25302400     0.04700
H1841       H  0.92510474  0.40393433  0.27441123     0.06700
H1842       H  0.93176319  0.40922690  0.24166328     0.07500
C1843       C  0.79386492  0.50896375  0.11842645    -0.22100
C1844       C  0.79210174  0.49681810  0.09558807     0.09900
C1845       C  0.81313111  0.49867825  0.07815638     0.10300
C1846       C  0.83638057  0.51118731  0.08481504    -0.17000
C1847       C  0.83917583  0.52168968  0.10864008    -0.27400
C1848       C  0.81705991  0.52139673  0.12519966     0.18600
C1849       C  0.76940535  0.48034241  0.09109244     0.12600
C1850       C  0.81134358  0.48669723  0.05287260    -0.11800
H1851       H  0.85295878  0.51158514  0.07189248     0.12900
C1852       C  0.81770447  0.53379608  0.15026423    -0.22600
H1853       H  0.77745141  0.50777290  0.13149862     0.08500
C1854       C  0.77077795  0.45611858  0.09844181     0.04800
C1855       C  0.75231824  0.43967343  0.08870185    -0.19900
C1856       C  0.73286988  0.44695195  0.07150466    -0.12100
C1857       C  0.72934201  0.47169841  0.06707371     0.13500
C1858       C  0.74776908  0.48813682  0.07680869    -0.22600
C1859       C  0.79291663  0.44736992  0.11503720    -0.05600
H1860       H  0.75518139  0.42074631  0.09196638     0.15100
C1861       C  0.70793917  0.48083407  0.04984810    -0.15800
H1862       H  0.74634931  0.50683153  0.07168053     0.09400
H1863       H  0.79774360  0.53444564  0.15901334     0.07200
H1864       H  0.82486893  0.55245138  0.14797846     0.08500
H1865       H  0.83075848  0.52386010  0.16328860     0.07500
H1866       H  0.79418406  0.49388655  0.04223334     0.02400
H1867       H  0.80873051  0.46713594  0.05532401     0.02900
H1868       H  0.82949883  0.48979322  0.04155361     0.06400
H1869       H  0.79127933  0.42789560  0.11873848     0.05300
H1870       H  0.79226657  0.45681918  0.13334453    -0.00400
H1871       H  0.81233497  0.45085905  0.10592191     0.01100
H1872       H  0.69564935  0.49406114  0.06001436     0.04700
H1873       H  0.69460618  0.46633036  0.04321017     0.06700
H1874       H  0.71707097  0.48960198  0.03323343     0.07500
C1875       C  0.02094608  0.70892102  0.27147937    -0.22100
C1876       C  0.03067592  0.71882053  0.24910442     0.09900
C1877       C  0.03889089  0.74301829  0.24890688     0.10300
C1878       C  0.03345266  0.75753974  0.26981242    -0.17000
C1879       C  0.01916122  0.74848880  0.29036364    -0.27400
C1880       C  0.01570373  0.72344623  0.29234683     0.18600
C1881       C  0.02941564  0.70450716  0.22554173     0.12600
C1882       C  0.05205722  0.75382144  0.22615793    -0.11800
H1883       H  0.03658355  0.77665928  0.26836421     0.12900
C1884       C  0.00246653  0.71240292  0.31488174    -0.22600
H1885       H  0.01535500  0.69021493  0.27202399     0.08500
C1886       C  0.04698858  0.68555702  0.22078379     0.04800
C1887       C  0.04641809  0.67421547  0.19720938    -0.19900
C1888       C  0.02921603  0.68178720  0.17796560    -0.12100
C1889       C  0.01085066  0.70013505  0.18319744     0.13500
C1890       C  0.01079177  0.71085050  0.20706584    -0.22600
C1891       C  0.06762649  0.67850802  0.23983977    -0.05600
H1892       H  0.06122585  0.66085227  0.19294681     0.15100
C1893       C  0.99273489  0.71029120  0.16339538    -0.15800
H1894       H  0.99712321  0.72530046  0.21080663     0.09400
H1895       H  0.01521638  0.69805504  0.32262866     0.07200
H1896       H  0.98304190  0.70462765  0.30929102     0.08500
H1897       H  0.99912233  0.72572860  0.32996517     0.07500
H1898       H  0.03843679  0.75329348  0.20978643     0.02400
H1899       H  0.07029454  0.74367133  0.22165639     0.02900
H1900       H  0.05775811  0.77274946  0.22940751     0.06400
H1901       H  0.08048852  0.66395601  0.23277176     0.05300
H1902       H  0.05789086  0.67213216  0.25729255    -0.00400
H1903       H  0.08043300  0.69413164  0.24427773     0.01100
H1904       H  0.97199289  0.70955696  0.17010213     0.04700
H1905       H  0.99369012  0.70042061  0.14539553     0.06700
H1906       H  0.99811881  0.72923877  0.15980312     0.07500
C1907       C  0.18506632  0.73151306  0.08786334    -0.22100
C1908       C  0.16145059  0.74390298  0.09211607     0.09900
C1909       C  0.16050223  0.76872544  0.08747349     0.10300
C1910       C  0.18194496  0.77988757  0.07523978    -0.17000
C1911       C  0.20449531  0.76681200  0.06849737    -0.27400
C1912       C  0.20679953  0.74281674  0.07654213     0.18600
C1913       C  0.13759859  0.73005060  0.09961274     0.12600
C1914       C  0.13679139  0.78324992  0.09510584    -0.11800
H1915       H  0.18028281  0.79832527  0.06924249     0.12900
C1916       C  0.23135888  0.72831776  0.07169509    -0.22600
H1917       H  0.18610246  0.71262504  0.09225998     0.08500
C1918       C  0.11806756  0.72345577  0.08184956     0.04800
C1919       C  0.09652663  0.70917937  0.08934945    -0.19900
C1920       C  0.09401879  0.70118646  0.11424708    -0.12100
C1921       C  0.11415610  0.70738775  0.13193493     0.13500
C1922       C  0.13565399  0.72165197  0.12425769    -0.22600
C1923       C  0.12051273  0.73074313  0.05474373    -0.05600
H1924       H  0.08140912  0.70447864  0.07570800     0.15100
C1925       C  0.11388274  0.69858737  0.15875937    -0.15800
H1926       H  0.15116248  0.72627195  0.13753986     0.09400
H1927       H  0.22657465  0.71339066  0.05872448     0.07200
H1928       H  0.23878828  0.72087083  0.08971114     0.08500
H1929       H  0.24759394  0.73914592  0.06335177     0.07500
H1930       H  0.13395564  0.78177106  0.11573080     0.02400
H1931       H  0.11860260  0.77675071  0.08558900     0.02900
H1932       H  0.13944718  0.80242556  0.09034034     0.06400
H1933       H  0.10461674  0.72270385  0.04297167     0.05300
H1934       H  0.13998337  0.72477268  0.04758671    -0.00400
H1935       H  0.11934325  0.75039346  0.05276734     0.01100
H1936       H  0.13247569  0.70329740  0.16885115     0.04700
H1937       H  0.11185256  0.67883898  0.15913443     0.06700
H1938       H  0.09737800  0.70691737  0.16928253     0.07500
C1939       C  0.90849198  0.73857468  0.17835114    -0.22100
C1940       C  0.91811285  0.72952831  0.20112286     0.09900
C1941       C  0.92612778  0.70526672  0.20235461     0.10300
C1942       C  0.92284326  0.69047879  0.18115992    -0.17000
C1943       C  0.91289548  0.69966837  0.15858042    -0.27400
C1944       C  0.90697169  0.72431494  0.15686312     0.18600
C1945       C  0.92094715  0.74613245  0.22286526     0.12600
C1946       C  0.93841343  0.69492377  0.22577052    -0.11800
H1947       H  0.92729424  0.67159948  0.18243553     0.12900
C1948       C  0.89906225  0.73620647  0.13252335    -0.22600
H1949       H  0.90228975  0.75704380  0.17720907     0.08500
C1950       C  0.93807878  0.76621215  0.22183585     0.04800
C1951       C  0.94264242  0.77956157  0.24372027    -0.19900
C1952       C  0.93282923  0.77192376  0.26709058    -0.12100
C1953       C  0.91391211  0.75327996  0.26769371     0.13500
C1954       C  0.90754543  0.74108215  0.24540960    -0.22600
C1955       C  0.95383122  0.77222066  0.19855219    -0.05600
H1956       H  0.95747536  0.79364575  0.24337460     0.15100
C1957       C  0.90200850  0.74464867  0.29197270    -0.15800
H1958       H  0.89349380  0.72639490  0.24605910     0.09400
H1959       H  0.91271313  0.75140234  0.12871096     0.07200
H1960       H  0.87852375  0.74308803  0.13403249     0.08500
H1961       H  0.90020812  0.72406762  0.11612865     0.07500
H1962       H  0.92381722  0.69461396  0.24130209     0.02400
H1963       H  0.95589494  0.70577921  0.23141678     0.02900
H1964       H  0.94516097  0.67629621  0.22275637     0.06400
H1965       H  0.96834575  0.78682205  0.20203038     0.05300
H1966       H  0.96507630  0.75632632  0.19225424    -0.00400
H1967       H  0.94052237  0.77829054  0.18327868     0.01100
H1968       H  0.88006502  0.74562119  0.29078994     0.04700
H1969       H  0.90851871  0.75560466  0.30822671     0.06700
H1970       H  0.90789944  0.72583760  0.29538835     0.07500
C1971       C  0.77502845  0.74759025  0.08963173    -0.22100
C1972       C  0.77084335  0.72279091  0.08983782     0.09900
C1973       C  0.74599139  0.71354513  0.08242818     0.10300
C1974       C  0.72701222  0.72907479  0.07222208    -0.17000
C1975       C  0.73285034  0.75338262  0.06838883    -0.27400
C1976       C  0.75645685  0.76299135  0.07856656     0.18600
C1977       C  0.79391130  0.70691893  0.09420732     0.12600
C1978       C  0.74038785  0.68711738  0.08323953    -0.11800
H1979       H  0.70900565  0.72171109  0.06414683     0.12900
C1980       C  0.76322818  0.78905487  0.07540616    -0.22600
H1981       H  0.79396587  0.75461992  0.09591728     0.08500
C1982       C  0.81409518  0.70471960  0.07592163     0.04800
C1983       C  0.83682894  0.69133025  0.08147665    -0.19900
C1984       C  0.83986906  0.68020974  0.10489916    -0.12100
C1985       C  0.81863607  0.68064508  0.12227136     0.13500
C1986       C  0.79591754  0.69412584  0.11675880    -0.22600
C1987       C  0.81191768  0.71688839  0.05070461    -0.05600
H1988       H  0.85306882  0.69096615  0.06816622     0.15100
C1989       C  0.81990031  0.66686615  0.14659943    -0.15800
H1990       H  0.78003054  0.69528757  0.13037818     0.09400
H1991       H  0.76428384  0.79369498  0.05513988     0.07200
H1992       H  0.78264806  0.79355758  0.08409325     0.08500
H1993       H  0.74782477  0.80012532  0.08453709     0.07500
H1994       H  0.74167648  0.68060886  0.10290479     0.02400
H1995       H  0.75505133  0.67747262  0.07153790     0.02900
H1996       H  0.72025574  0.68282525  0.07601848     0.06400
H1997       H  0.82909126  0.71275691  0.03846039     0.05300
H1998       H  0.81125932  0.73654356  0.05313293    -0.00400
H1999       H  0.79361310  0.71081158  0.04096409     0.01100
H2000       H  0.83600453  0.67382920  0.15878165     0.04700
H2001       H  0.82350799  0.64771002  0.14254751     0.06700
H2002       H  0.80106940  0.66818363  0.15728495     0.07500
C2003       C  0.89250279  0.68877099  0.83032328    -0.22100
C2004       C  0.91322725  0.70525174  0.82724109     0.09900
C2005       C  0.93353845  0.70622085  0.84570857     0.10300
C2006       C  0.93185778  0.69163149  0.86729579    -0.17000
C2007       C  0.91028231  0.67616965  0.87104918    -0.27400
C2008       C  0.89093633  0.67409815  0.85173012     0.18600
C2009       C  0.91351601  0.72135265  0.80471094     0.12600
C2010       C  0.95665144  0.72318062  0.84308697    -0.11800
H2011       H  0.94626444  0.69382030  0.88225720     0.12900
C2012       C  0.86776786  0.65707493  0.85358464    -0.22600
H2013       H  0.87696493  0.68778621  0.81626815     0.08500
C2014       C  0.91867874  0.71265534  0.78027493     0.04800
C2015       C  0.92493065  0.72892459  0.76090259    -0.19900
C2016       C  0.92750451  0.75354170  0.76574823    -0.12100
C2017       C  0.91795310  0.76227505  0.78892510     0.13500
C2018       C  0.91102324  0.74611587  0.80811814    -0.22600
C2019       C  0.91994740  0.68625225  0.77507303    -0.05600
H2020       H  0.93203348  0.72210567  0.74310256     0.15100
C2021       C  0.91778514  0.78854882  0.79474398    -0.15800
H2022       H  0.90567884  0.75293364  0.82646785     0.09400
H2023       H  0.86740405  0.64530696  0.83681305     0.07200
H2024       H  0.84898629  0.66731929  0.85429912     0.08500
H2025       H  0.86888981  0.64537408  0.87038056     0.07500
H2026       H  0.94968488  0.74191437  0.84369254     0.02400
H2027       H  0.96686821  0.72000732  0.82494940     0.02900
H2028       H  0.97124600  0.72088393  0.85854162     0.06400
H2029       H  0.92548690  0.68256504  0.75527436     0.05300
H2030       H  0.90028915  0.67791765  0.77847116    -0.00400
H2031       H  0.93494822  0.67779534  0.78746953     0.01100
H2032       H  0.89749971  0.79395496  0.80037312     0.04700
H2033       H  0.92362851  0.79953633  0.77829062     0.06700
H2034       H  0.93172465  0.79236023  0.81041506     0.07500
C2035       C  0.81626844  0.70238773  0.96904749    -0.22100
C2036       C  0.80060257  0.71222139  0.94987597     0.09900
C2037       C  0.80775481  0.70876756  0.92468304     0.10300
C2038       C  0.83046360  0.69549552  0.91912944    -0.17000
C2039       C  0.84710227  0.68616746  0.93816456    -0.27400
C2040       C  0.83955403  0.68958234  0.96363309     0.18600
C2041       C  0.77780684  0.72742928  0.95678594     0.12600
C2042       C  0.79183707  0.71971659  0.90365457    -0.11800
H2043       H  0.83551136  0.69303524  0.89953888     0.12900
C2044       C  0.85597763  0.68058505  0.98530607    -0.22600
H2045       H  0.81056030  0.70535882  0.98842056     0.08500
C2046       C  0.75227547  0.71778715  0.96076494     0.04800
C2047       C  0.73247286  0.73232629  0.97107590    -0.19900
C2048       C  0.73798148  0.75599536  0.97814116    -0.12100
C2049       C  0.76280984  0.76617953  0.97182593     0.13500
C2050       C  0.78241618  0.75175264  0.96115402    -0.22600
C2051       C  0.74646996  0.69183235  0.95573069    -0.05600
H2052       H  0.71358322  0.72446118  0.97628529     0.15100
C2053       C  0.76994403  0.79164388  0.97806256    -0.15800
H2054       H  0.80194254  0.75919070  0.95759220     0.09400
H2055       H  0.84702850  0.68514575  0.00372469     0.07200
H2056       H  0.87604283  0.68879630  0.98474328     0.08500
H2057       H  0.85747118  0.66084901  0.98438207     0.07500
H2058       H  0.79157535  0.73943628  0.90576460     0.02400
H2059       H  0.77118466  0.71284857  0.90412845     0.02900
H2060       H  0.80032522  0.71551657  0.88494464     0.06400
H2061       H  0.72555892  0.68715855  0.96011991     0.05300
H2062       H  0.75954149  0.68048435  0.96750250    -0.00400
H2063       H  0.75002082  0.68775115  0.93563409     0.01100
H2064       H  0.78665306  0.79193130  0.99167069     0.04700
H2065       H  0.75316758  0.80163635  0.98628943     0.06700
H2066       H  0.77611022  0.80110040  0.96066125     0.07500
C2067       C  0.16482905  0.68568728  0.93522067    -0.22100
C2068       C  0.16538332  0.69939723  0.95715755     0.09900
C2069       C  0.14348305  0.69859928  0.97367800     0.10300
C2070       C  0.12053243  0.68605408  0.96672322    -0.17000
C2071       C  0.11899418  0.67406796  0.94370128    -0.27400
C2072       C  0.14195218  0.67277869  0.92837928     0.18600
C2073       C  0.18765663  0.71625732  0.96150437     0.12600
C2074       C  0.14341546  0.71122609  0.99855437    -0.11800
H2075       H  0.10324285  0.68679816  0.97877948     0.12900
C2076       C  0.14260915  0.65764288  0.90499792    -0.22600
H2077       H  0.18198693  0.68579332  0.92298901     0.08500
C2078       C  0.21042998  0.70954883  0.97510874     0.04800
C2079       C  0.22769499  0.72737883  0.98403550    -0.19900
C2080       C  0.22167262  0.75172470  0.98099119    -0.12100
C2081       C  0.20037014  0.75821858  0.96516816     0.13500
C2082       C  0.18377986  0.74035139  0.95535395    -0.22600
C2083       C  0.21509391  0.68387775  0.98220155    -0.05600
H2084       H  0.24375686  0.72242911  0.99654231     0.15100
C2085       C  0.19309831  0.78387956  0.96043321    -0.15800
H2086       H  0.16633848  0.74541899  0.94470101     0.09400
H2087       H  0.16277638  0.65714142  0.89667433     0.07200
H2088       H  0.12908407  0.66484166  0.89048426     0.08500
H2089       H  0.13671562  0.63903948  0.90969741     0.07500
H2090       H  0.16244936  0.72025894  0.00296276     0.02400
H2091       H  0.13957111  0.69788572  0.01358073     0.02900
H2092       H  0.12747423  0.72482616  0.99867763     0.06400
H2093       H  0.23358323  0.68173992  0.99332979     0.05300
H2094       H  0.21677740  0.67288025  0.96495352    -0.00400
H2095       H  0.19828097  0.67716112  0.99370037     0.01100
H2096       H  0.19270488  0.78730489  0.93988402     0.04700
H2097       H  0.20741927  0.79656309  0.96897840     0.06700
H2098       H  0.17314535  0.78748380  0.96831017     0.07500
C2099       C  0.02467158  0.69534290  0.84399732    -0.22100
C2100       C  0.04576155  0.70757313  0.83238631     0.09900
C2101       C  0.07149931  0.70468063  0.84191694     0.10300
C2102       C  0.07538924  0.69073477  0.86351838    -0.17000
C2103       C  0.05408391  0.67998011  0.87684494    -0.27400
C2104       C  0.02835792  0.68173701  0.86614795     0.18600
C2105       C  0.04030711  0.72400090  0.81088951     0.12600
C2106       C  0.09490124  0.71662088  0.82946822    -0.11800
H2107       H  0.09546675  0.68914936  0.87044306     0.12900
C2108       C  0.00462896  0.66973844  0.87781228    -0.22600
H2109       H  0.00507433  0.69690089  0.83592872     0.08500
C2110       C  0.03638959  0.71542947  0.78625097     0.04800
C2111       C  0.02771961  0.73120892  0.76736119    -0.19900
C2112       C  0.02219268  0.75528464  0.77268894    -0.12100
C2113       C  0.02873701  0.76427156  0.79675828     0.13500
C2114       C  0.03777482  0.74855895  0.81553110    -0.22600
C2115       C  0.04013345  0.68941692  0.78022144    -0.05600
H2116       H  0.02226680  0.72413056  0.74911294     0.15100
C2117       C  0.02424867  0.78999186  0.80369805    -0.15800
H2118       H  0.04143538  0.75529791  0.83431140     0.09400
H2119       H  0.00815835  0.65024187  0.87938700     0.07200
H2120       H  0.98651933  0.67225060  0.86624860     0.08500
H2121       H  0.00074000  0.67740180  0.89665485     0.07500
H2122       H  0.09245912  0.73630342  0.82993554     0.02400
H2123       H  0.09634365  0.71067394  0.80963153     0.02900
H2124       H  0.11384643  0.71221521  0.83903928     0.06400
H2125       H  0.03614411  0.68560408  0.76009235     0.05300
H2126       H  0.02638574  0.67836655  0.79168020    -0.00400
H2127       H  0.06086507  0.68416848  0.78444460     0.01100
H2128       H  0.00925926  0.79103865  0.81890474     0.04700
H2129       H  0.01725245  0.80082530  0.78756193     0.06700
H2130       H  0.04313926  0.79797593  0.81045762     0.07500
loop_ 
_geom_bond_atom_site_label_1 
_geom_bond_atom_site_label_2 
_geom_bond_distance 
_geom_bond_site_symmetry_2 
_ccdc_geom_bond_type 
C1            N2   1.357       .  A
C1            N6   1.346       .  A
C1         C2071   1.482       .  S
N2            C3   1.364       .  A
C3            N4   1.376       .  A
C3           C51   1.495       .  S
N4            C5   1.375       .  A
C5            N6   1.354       .  A
C5         C2103   1.514       .  S
C7            N8   1.359       .  A
C7           N12   1.348       .  A
C7         C2039   1.502       .  S
N8            C9   1.368       .  A
C9           N10   1.373       .  A
C9           C80   1.496       .  S
N10          C11   1.372       .  A
C11          N12   1.350       .  A
C11        C2007   1.486       .  S
C13          N14   1.365       .  A
C13          N18   1.350       .  A
C13        C1943   1.474       .  S
N14          C15   1.367       .  A
C15          N16   1.367       .  A
C15          C71   1.477       .  S
N16          C17   1.359       .  A
C17          N18   1.347       .  A
C17        C1984   1.477       .  S
C19          N20   1.369       .  A
C19          N24   1.349       .  A
C19        C1888   1.478       .  S
N20          C21   1.372       .  A
C21          N22   1.367       .  A
C21          C60   1.494       .  S
N22          C23   1.362       .  A
C23          N24   1.346       .  A
C23        C1920   1.490       .  S
C25          N26   1.375       .  A
C25          N30   1.353       .  A
C25        C1815   1.496       .  S
N26          C27   1.376       .  A
C27          N28   1.369       .  A
C27          C77   1.505       .  S
N28          C29   1.363       .  A
C29          N30   1.351       .  A
C29        C1847   1.493       .  S
C31          N32   1.349       .  A
C31          N36   1.354       .  A
C31        C1751   1.501       .  S
N32          C33   1.353       .  A
C33          N34   1.372       .  A
C33        C1783   1.489       .  S
N34          C35   1.372       .  A
C35          N36   1.364       .  A
C35          C74   1.489       .  S
C37          N38   1.364       .  A
C37          N42   1.350       .  A
C37        C1687   1.487       .  S
N38          C39   1.369       .  A
C39          N40   1.366       .  A
C39          C57   1.492       .  S
N40          C41   1.367       .  A
C41          N42   1.352       .  A
C41        C1728   1.483       .  S
C43          N44   1.353       .  A
C43          N48   1.375       .  A
C43        C1632   1.488       .  S
N44          C45   1.344       .  A
C45          N46   1.350       .  A
C45        C1664   1.484       .  S
N46          C47   1.364       .  A
C47          N48   1.374       .  A
C47          C54   1.489       .  S
O49         Zr61   2.468   1_556  S
O49          C51   1.294       .  A
O50         Zr87   2.463   1_455  S
O50          C51   1.293       .  A
O52         Zr64   2.423       .  S
O52          C54   1.286       .  A
O53         Zr88   2.476   1_455  S
O53          C54   1.294       .  A
O55         Zr64   2.442   1_556  S
O55          C57   1.288       .  A
O56         Zr87   2.478   1_455  S
O56          C57   1.296       .  A
O58         Zr61   2.462       .  S
O58          C60   1.293       .  A
O59         Zr88   2.464   1_455  S
O59          C60   1.294       .  A
Zr61         O62   2.435       .  S
Zr61         O63   2.436       .  S
Zr61         O67   2.370       .  S
Zr61         O68   2.382       .  S
Zr61         O91   2.374   1_455  S
Zr61         O93   2.381   1_454  S
O62         H105   0.990       .  S
O63         H104   0.990       .  S
O63         H108   0.990       .  S
Zr64         O65   2.438       .  S
Zr64         O66   2.435       .  S
Zr64         O68   2.375       .  S
Zr64         O67   2.363       .  S
Zr64         O92   2.369   1_454  S
Zr64         O94   2.373   1_455  S
O65         H106   0.990       .  S
O65         H109   0.990       .  S
O66          H99   0.990       .  S
O67         Zr87   2.397   1_454  S
O68         Zr88   2.410   1_455  S
O68          H95   0.965       .  S
O69         Zr81   2.433       .  S
O69          C71   1.286       .  A
O70         Zr88   2.466       .  S
O70          C71   1.294       .  A
O72         Zr84   2.442   1_556  S
O72          C74   1.290       .  A
O73         Zr87   2.468       .  S
O73          C74   1.294       .  A
O75         Zr84   2.472       .  S
O75          C77   1.295       .  A
O76         Zr88   2.480       .  S
O76          C77   1.296       .  A
O78         Zr81   2.442   1_556  S
O78          C80   1.289       .  A
O79         Zr87   2.480       .  S
O79          C80   1.296       .  A
Zr81         O82   2.438       .  S
Zr81         O83   2.435       .  S
Zr81         O89   2.376       .  S
Zr81         O90   2.366   1_554  S
Zr81         O93   2.373   1_554  S
Zr81         O91   2.373       .  S
O82         H102   0.990       .  S
O82         H107   0.990       .  S
O83         H103   0.990       .  S
Zr84         O85   2.436       .  S
Zr84         O86   2.436       .  S
Zr84         O90   2.375   1_554  S
Zr84         O89   2.365       .  S
Zr84         O94   2.367       .  S
Zr84         O92   2.386   1_554  S
O85         H101   0.990       .  S
O86         H100   0.990       .  S
O86         H110   0.990       .  S
Zr87         O90   2.399       .  S
Zr87         O92   2.406       .  S
Zr87         O93   2.407       .  S
Zr88         O89   2.398       .  S
Zr88         O91   2.403       .  S
Zr88         O94   2.394       .  S
O89          H97   0.965       .  S
O92          H96   0.965       .  S
O93          H98   0.965       .  S
C111        N112   1.359       .  A
C111        N116   1.350   1_545  A
C111       C1559   1.489       .  S
N112        C113   1.364       .  A
C113        N114   1.372   1_545  A
C113        C161   1.493       .  S
N114        C115   1.372       .  A
C115        N116   1.353       .  A
C115       C1600   1.496       .  S
C117        N118   1.348   1_545  A
C117        N122   1.360       .  A
C117       C1536   1.504       .  S
N118        C119   1.350       .  A
C119        N120   1.365       .  A
C119       C1495   1.472       .  S
N120        C121   1.367   1_565  A
C121        N122   1.369       .  A
C121        C190   1.486       .  S
C123        N124   1.366       .  A
C123        N128   1.350       .  A
C123       C1431   1.483       .  S
N124        C125   1.368       .  A
C125        N126   1.368       .  A
C125        C181   1.481       .  S
N126        C127   1.360       .  A
C127        N128   1.346       .  A
C127       C1472   1.488       .  S
C129        N130   1.349       .  A
C129        N134   1.369       .  A
C129       C1376   1.481       .  S
N130        C131   1.347       .  A
C131        N132   1.361       .  A
C131       C1399   1.493       .  S
N132        C133   1.366       .  A
C133        N134   1.372       .  A
C133        C170   1.491       .  S
C135        N136   1.351       .  A
C135        N140   1.367       .  A
C135       C1303   1.480       .  S
N136        C137   1.351       .  A
C137        N138   1.360       .  A
C137       C1335   1.493       .  S
N138        C139   1.365       .  A
C139        N140   1.368       .  A
C139        C187   1.484       .  S
C141        N142   1.347   1_545  A
C141        N146   1.355       .  A
C141       C1248   1.487       .  S
N142        C143   1.355       .  A
C143        N144   1.371       .  A
C143       C1271   1.488       .  S
N144        C145   1.373   1_565  A
C145        N146   1.363       .  A
C145        C184   1.488       .  S
C147        N148   1.356       .  A
C147        N152   1.347   1_545  A
C147       C1175   1.486       .  S
N148        C149   1.365       .  A
C149        N150   1.365   1_545  A
C149        C167   1.476       .  S
N150        C151   1.365       .  A
C151        N152   1.350       .  A
C151       C1207   1.471       .  S
C153        N154   1.350       .  A
C153        N158   1.362       .  A
C153       C1143   1.472       .  S
N154        C155   1.348       .  A
C155        N156   1.362       .  A
C155       C1111   1.489       .  S
N156        C157   1.369       .  A
C157        N158   1.366       .  A
C157        C164   1.477       .  S
O159       Zr171   2.466       .  S
O159        C161   1.294       .  A
O160       Zr197   2.457       .  S
O160        C161   1.292       .  A
O162       Zr174   2.423       .  S
O162        C164   1.283       .  A
O163       Zr198   2.472       .  S
O163        C164   1.295       .  A
O165       Zr174   2.413       .  S
O165        C167   1.283       .  A
O166       Zr197   2.468       .  S
O166        C167   1.294       .  A
O168       Zr171   2.461       .  S
O168        C170   1.293       .  A
O169       Zr198   2.456       .  S
O169        C170   1.292       .  A
Zr171       O172   2.434       .  S
Zr171       O173   2.433       .  S
Zr171       O177   2.367       .  S
Zr171       O178   2.376       .  S
Zr171       O201   2.375       .  S
Zr171       O203   2.378       .  S
O172        H215   0.990       .  S
O173        H214   0.990       .  S
O173        H218   0.990       .  S
Zr174       O175   2.438       .  S
Zr174       O176   2.435       .  S
Zr174       O178   2.364       .  S
Zr174       O177   2.365       .  S
Zr174       O202   2.372       .  S
Zr174       O204   2.370       .  S
O175        H216   0.990       .  S
O175        H219   0.990       .  S
O176        H209   0.990       .  S
O177       Zr197   2.395       .  S
O178       Zr198   2.396       .  S
O178        H205   0.966       .  S
O179       Zr191   2.433       .  S
O179        C181   1.286       .  A
O180       Zr198   2.468   1_556  S
O180        C181   1.294       .  A
O182       Zr194   2.454       .  S
O182        C184   1.292       .  A
O183       Zr197   2.454       .  S
O183        C184   1.291   1_554  A
O185       Zr194   2.462       .  S
O185        C187   1.292       .  A
O186       Zr198   2.453   1_556  S
O186        C187   1.292       .  A
O188       Zr191   2.421       .  S
O188        C190   1.284       .  A
O189       Zr197   2.479   1_556  S
O189        C190   1.296       .  A
Zr191       O192   2.440       .  S
Zr191       O193   2.433       .  S
Zr191       O199   2.360       .  S
Zr191       O200   2.366       .  S
Zr191       O203   2.381   1_556  S
Zr191       O201   2.374   1_556  S
O192        H212   0.990       .  S
O192        H217   0.990       .  S
O193        H213   0.990       .  S
Zr194       O195   2.435       .  S
Zr194       O196   2.436   1_556  S
Zr194       O200   2.372       .  S
Zr194       O199   2.372       .  S
Zr194       O204   2.372   1_556  S
Zr194       O202   2.371   1_556  S
O195        H211   0.990       .  S
O196        H210   0.990   1_554  S
O196        H220   0.990   1_554  S
Zr197       O200   2.393   1_554  S
Zr197       O202   2.403       .  S
Zr197       O203   2.403       .  S
Zr198       O199   2.395   1_554  S
Zr198       O201   2.398       .  S
Zr198       O204   2.395       .  S
O199        H207   0.965       .  S
O202        H206   0.966       .  S
O203        H208   0.966       .  S
C221        N222   1.343   1_545  A
C221        N226   1.356       .  A
C221       C1056   1.481       .  S
N222        C223   1.350       .  A
C223        N224   1.374       .  A
C223       C1079   1.491       .  S
N224        C225   1.378   1_565  A
C225        N226   1.365       .  A
C225        C277   1.494       .  S
C227        N228   1.347   1_545  A
C227        N232   1.366       .  A
C227       C1015   1.497       .  S
N228        C229   1.348       .  A
C229        N230   1.364   1_565  A
C229        C983   1.475       .  S
N230        C231   1.368       .  A
C231        N232   1.371       .  A
C231        C294   1.490       .  S
C233        N234   1.368       .  A
C233        N238   1.352       .  A
C233        C928   1.479       .  S
N234        C235   1.369       .  A
C235        N236   1.366       .  A
C235        C297   1.490       .  S
N236        C237   1.359       .  A
C237        N238   1.352       .  A
C237        C951   1.506       .  S
C239        N240   1.371       .  A
C239        N244   1.354       .  A
C239        C864   1.501       .  S
N240        C241   1.372       .  A
C241        N242   1.365       .  A
C241        C274   1.488       .  S
N242        C243   1.359       .  A
C243        N244   1.346       .  A
C243        C896   1.481       .  S
C245        N246   1.351       .  A
C245        N250   1.371       .  A
C245        C791   1.477       .  S
N246        C247   1.348       .  A
C247        N248   1.354       .  A
C247        C823   1.493       .  S
N248        C249   1.364       .  A
C249        N250   1.371       .  A
C249        C291   1.489       .  S
C251        N252   1.348   1_545  A
C251        N256   1.360       .  A
C251        C736   1.480       .  S
N252        C253   1.350       .  A
C253        N254   1.365   1_565  A
C253        C759   1.474       .  S
N254        C255   1.365       .  A
C255        N256   1.368       .  A
C255        C300   1.483       .  S
C257        N258   1.362       .  A
C257        N262   1.348   1_545  A
C257        C672   1.495       .  S
N258        C259   1.368       .  A
C259        N260   1.375   1_545  A
C259        C271   1.502       .  S
N260        C261   1.374       .  A
C261        N262   1.353       .  A
C261        C695   1.500       .  S
C263        N264   1.349       .  A
C263        N268   1.371       .  A
C263        C608   1.499       .  S
N264        C265   1.343       .  A
C265        N266   1.361       .  A
C265        C631   1.489       .  S
N266        C267   1.370       .  A
C267        N268   1.375       .  A
C267        C280   1.495       .  S
O269       Zr281   2.460       .  S
O269        C271   1.293       .  A
O270       Zr307   2.478   1_455  S
O270        C271   1.296       .  A
O272       Zr284   2.459       .  S
O272        C274   1.292       .  A
O273       Zr308   2.461   1_455  S
O273        C274   1.293       .  A
O275       Zr284   2.465       .  S
O275        C277   1.294       .  A
O276       Zr307   2.460   1_455  S
O276        C277   1.292       .  A
O278       Zr281   2.465       .  S
O278        C280   1.294       .  A
O279       Zr308   2.463   1_455  S
O279        C280   1.294       .  A
Zr281       O282   2.434       .  S
Zr281       O283   2.434       .  S
Zr281       O287   2.377       .  S
Zr281       O288   2.372       .  S
Zr281       O311   2.374   1_455  S
Zr281       O313   2.380   1_455  S
O282        H325   0.990       .  S
O283        H324   0.990       .  S
O283        H328   0.990       .  S
Zr284       O285   2.436       .  S
Zr284       O286   2.436       .  S
Zr284       O288   2.375       .  S
Zr284       O287   2.374       .  S
Zr284       O312   2.376   1_455  S
Zr284       O314   2.379   1_455  S
O285        H326   0.990       .  S
O285        H329   0.990       .  S
O286        H319   0.990       .  S
O287       Zr307   2.401   1_455  S
O288       Zr308   2.405   1_455  S
O288        H315   0.966       .  S
O289       Zr301   2.432       .  S
O289        C291   1.288       .  A
O290       Zr308   2.472       .  S
O290        C291   1.294       .  A
O292       Zr304   2.449       .  S
O292        C294   1.290       .  A
O293       Zr307   2.467       .  S
O293        C294   1.295       .  A
O295       Zr304   2.441       .  S
O295        C297   1.289       .  A
O296       Zr308   2.473       .  S
O296        C297   1.295       .  A
O298       Zr301   2.428       .  S
O298        C300   1.285       .  A
O299       Zr307   2.469       .  S
O299        C300   1.295       .  A
Zr301       O302   2.438       .  S
Zr301       O303   2.434       .  S
Zr301       O309   2.370       .  S
Zr301       O310   2.362       .  S
Zr301       O313   2.375       .  S
Zr301       O311   2.368       .  S
O302        H322   0.990       .  S
O302        H327   0.990       .  S
O303        H323   0.990       .  S
Zr304       O305   2.435       .  S
Zr304       O306   2.436       .  S
Zr304       O310   2.365       .  S
Zr304       O309   2.375       .  S
Zr304       O314   2.377       .  S
Zr304       O312   2.372       .  S
O305        H321   0.990       .  S
O306        H320   0.990       .  S
O306        H330   0.990       .  S
Zr307       O310   2.388       .  S
Zr307       O312   2.405       .  S
Zr307       O313   2.403       .  S
Zr308       O309   2.399       .  S
Zr308       O311   2.398       .  S
Zr308       O314   2.401       .  S
O309        H317   0.966       .  S
O312        H316   0.966       .  S
O313        H318   0.966       .  S
C331       C1623   1.483       .  S
C331        C332   1.388   1_455  A
C331        C336   1.415       .  A
C332        C333   1.388       .  A
C332        H351   1.088       .  S
C333       C1824   1.493       .  S
C333        C334   1.421       .  A
C334        C335   1.430       .  A
C334        C341   1.405       .  A
C335        C336   1.427   1_655  A
C335        C340   1.423       .  A
C336        C337   1.406       .  A
C337        C338   1.400       .  A
C337        H347   1.083       .  S
C338        C339   1.405   1_455  A
C338        H348   1.083       .  S
C339        C340   1.428       .  A
C339        C346   1.416       .  A
C340        C343   1.427       .  A
C341        C342   1.402       .  A
C341        H349   1.083       .  S
C342        C343   1.406       .  A
C342        H350   1.083       .  S
C343        C344   1.418       .  A
C344        C800   1.488       .  S
C344        C345   1.392       .  A
C345        C346   1.387       .  A
C345        H352   1.087       .  S
C346        C599   1.486   1_655  S
C353       C1120   1.487       .  S
C353        C354   1.391       .  A
C353        C358   1.417       .  A
C354        C355   1.392       .  A
C354        H373   1.087       .  S
C355       C1184   1.476       .  S
C355        C356   1.410       .  A
C356        C357   1.421       .  A
C356        C363   1.406       .  A
C357        C358   1.427       .  A
C357        C362   1.419       .  A
C358        C359   1.404       .  A
C359        C360   1.399       .  A
C359        H369   1.083       .  S
C360        C361   1.406       .  A
C360        H370   1.083       .  S
C361        C362   1.421       .  A
C361        C368   1.412       .  A
C362        C365   1.426       .  A
C363        C364   1.396       .  A
C363        H371   1.083       .  S
C364        C365   1.403       .  A
C364        H372   1.083       .  S
C365        C366   1.414       .  A
C366        C663   1.484       .  S
C366        C367   1.390       .  A
C367        C368   1.391       .  A
C367        H374   1.088       .  S
C368        C640   1.477       .  S
C375       C1696   1.483   1_554  S
C375        C376   1.393       .  A
C375        C380   1.415       .  A
C376        C377   1.390       .  A
C376        H395   1.087       .  S
C377       C1655   1.480       .  S
C377        C378   1.410       .  A
C378        C379   1.424       .  A
C378        C385   1.405       .  A
C379        C380   1.425       .  A
C379        C384   1.417       .  A
C380        C381   1.406   1_554  A
C381        C382   1.400       .  A
C381        H391   1.083       .  S
C382        C383   1.405   1_556  A
C382        H392   1.083       .  S
C383        C384   1.426       .  A
C383        C390   1.415       .  A
C384        C387   1.424       .  A
C385        C386   1.394       .  A
C385        H393   1.083       .  S
C386        C387   1.403       .  A
C386        H394   1.083       .  S
C387        C388   1.408       .  A
C388       C1152   1.478       .  S
C388        C389   1.389       .  A
C389        C390   1.389       .  A
C389        H396   1.088       .  S
C390       C1312   1.484   1_554  S
C397       C1408   1.478       .  S
C397        C398   1.390       .  A
C397        C402   1.409       .  A
C398        C399   1.394       .  A
C398        H417   1.087       .  S
C399       C1568   1.478       .  S
C399        C400   1.411       .  A
C400        C401   1.421       .  A
C400        C407   1.406       .  A
C401        C402   1.424       .  A
C401        C406   1.415       .  A
C402        C403   1.403       .  A
C403        C404   1.393       .  A
C403        H413   1.083       .  S
C404        C405   1.405       .  A
C404        H414   1.083       .  S
C405        C406   1.420       .  A
C405        C412   1.406       .  A
C406        C409   1.425       .  A
C407        C408   1.397       .  A
C407        H415   1.083       .  S
C408        C409   1.403       .  A
C408        H416   1.083       .  S
C409        C410   1.413       .  A
C410        C727   1.480       .  S
C410        C411   1.391       .  A
C411        C412   1.388       .  A
C411        H418   1.087       .  S
C412        C832   1.470       .  S
C419       C1879   1.485   1_655  S
C419        C420   1.393       .  A
C419        C424   1.417       .  A
C420        C421   1.387       .  A
C420        H439   1.088       .  S
C421       C1952   1.482       .  S
C421        C422   1.410       .  A
C422        C423   1.425       .  A
C422        C429   1.403       .  A
C423        C424   1.425       .  A
C423        C428   1.419       .  A
C424        C425   1.406   1_655  A
C425        C426   1.402       .  A
C425        H435   1.083       .  S
C426        C427   1.405       .  A
C426        H436   1.083       .  S
C427        C428   1.427   1_455  A
C427        C434   1.419       .  A
C428        C431   1.425       .  A
C429        C430   1.397       .  A
C429        H437   1.083       .  S
C430        C431   1.405       .  A
C430        H438   1.083       .  S
C431        C432   1.410       .  A
C432        C768   1.481       .  S
C432        C433   1.389       .  A
C433        C434   1.391   1_655  A
C433        H440   1.088       .  S
C434        C704   1.488       .  S
C441       C1239   1.480       .  S
C441        C442   1.391       .  A
C441        C446   1.410       .  A
C442        C443   1.395       .  A
C442        H461   1.087       .  S
C443       C1344   1.479       .  S
C443        C444   1.413       .  A
C444        C445   1.421       .  A
C444        C451   1.406       .  A
C445        C446   1.424       .  A
C445        C450   1.417       .  A
C446        C447   1.403       .  A
C447        C448   1.393       .  A
C447        H457   1.083       .  S
C448        C449   1.405       .  A
C448        H458   1.083       .  S
C449        C450   1.420       .  A
C449        C456   1.407       .  A
C450        C453   1.425       .  A
C451        C452   1.398       .  A
C451        H459   1.083       .  S
C452        C453   1.404       .  A
C452        H460   1.083       .  S
C453        C454   1.415       .  A
C454        C887   1.483       .  S
C454        C455   1.393       .  A
C455        C456   1.391       .  A
C455        H462   1.087       .  S
C456       C1047   1.473       .  S
C463       C1792   1.485       .  S
C463        C464   1.390       .  A
C463        C468   1.417       .  A
C464        C465   1.388       .  A
C464        H483   1.088       .  S
C465       C1719   1.486   1_655  S
C465        C466   1.415       .  A
C466        C467   1.428       .  A
C466        C473   1.405   1_655  A
C467        C468   1.427       .  A
C467        C472   1.421       .  A
C468        C469   1.406       .  A
C469        C470   1.402       .  A
C469        H479   1.083       .  S
C470        C471   1.406       .  A
C470        H480   1.083       .  S
C471        C472   1.427       .  A
C471        C478   1.418       .  A
C472        C475   1.426       .  A
C473        C474   1.398       .  A
C473        H481   1.083       .  S
C474        C475   1.404   1_455  A
C474        H482   1.083       .  S
C475        C476   1.414       .  A
C476        C855   1.484   1_655  S
C476        C477   1.387       .  A
C477        C478   1.392       .  A
C477        H484   1.088       .  S
C478        C919   1.486       .  S
C485       C1911   1.482       .  S
C485        C486   1.390       .  A
C485        C490   1.412       .  A
C486        C487   1.392       .  A
C486        H505   1.087       .  S
C487       C2080   1.481   1_554  S
C487        C488   1.414       .  A
C488        C489   1.423       .  A
C488        C495   1.406   1_554  A
C489        C490   1.425       .  A
C489        C494   1.418       .  A
C490        C491   1.404       .  A
C491        C492   1.395       .  A
C491        H501   1.083       .  S
C492        C493   1.404       .  A
C492        H502   1.083       .  S
C493        C494   1.423       .  A
C493        C500   1.409       .  A
C494        C497   1.426       .  A
C495        C496   1.399       .  A
C495        H503   1.083       .  S
C496        C497   1.404   1_556  A
C496        H504   1.083       .  S
C497        C498   1.415       .  A
C498       C1280   1.484   1_554  S
C498        C499   1.389       .  A
C499        C500   1.391       .  A
C499        H506   1.087       .  S
C500       C1216   1.477       .  S
C507       C1856   1.483       .  S
C507        C508   1.392       .  A
C507        C512   1.416       .  A
C508        C509   1.388       .  A
C508        H527   1.088       .  S
C509       C1760   1.481   1_554  S
C509        C510   1.412       .  A
C510        C511   1.426       .  A
C510        C517   1.404   1_554  A
C511        C512   1.424       .  A
C511        C516   1.420       .  A
C512        C513   1.407       .  A
C513        C514   1.402       .  A
C513        H523   1.083       .  S
C514        C515   1.405       .  A
C514        H524   1.083       .  S
C515        C516   1.428       .  A
C515        C522   1.419       .  A
C516        C519   1.424       .  A
C517        C518   1.396       .  A
C517        H525   1.083       .  S
C518        C519   1.404   1_556  A
C518        H526   1.083       .  S
C519        C520   1.409       .  A
C520       C1440   1.477   1_554  S
C520        C521   1.387       .  A
C521        C522   1.391       .  A
C521        H528   1.088       .  S
C522       C1367   1.489       .  S
C529       C2112   1.488   1_655  S
C529        C530   1.388       .  A
C529        C534   1.418   1_655  A
C530        C531   1.391       .  A
C530        H549   1.088       .  S
C531       C2016   1.490       .  S
C531        C532   1.421       .  A
C532        C533   1.429       .  A
C532        C539   1.406       .  A
C533        C534   1.428   1_655  A
C533        C538   1.425       .  A
C534        C535   1.406       .  A
C535        C536   1.401       .  A
C535        H545   1.083       .  S
C536        C537   1.405       .  A
C536        H546   1.083       .  S
C537        C538   1.429   1_455  A
C537        C544   1.418       .  A
C538        C541   1.429       .  A
C539        C540   1.402       .  A
C539        H547   1.083       .  S
C540        C541   1.406       .  A
C540        H548   1.083       .  S
C541        C542   1.419       .  A
C542        C992   1.490       .  S
C542        C543   1.389       .  A
C543        C544   1.387   1_655  A
C543        H550   1.088       .  S
C544       C1088   1.489       .  S
C551       C1527   1.485       .  S
C551        C552   1.390       .  A
C551        C556   1.417       .  A
C552        C553   1.392       .  A
C552        H571   1.087       .  S
C553       C1463   1.481       .  S
C553        C554   1.413       .  A
C554        C555   1.424       .  A
C554        C561   1.405       .  A
C555        C556   1.426       .  A
C555        C560   1.420       .  A
C556        C557   1.405       .  A
C557        C558   1.400       .  A
C557        H567   1.083       .  S
C558        C559   1.406       .  A
C558        H568   1.083       .  S
C559        C560   1.424       .  A
C559        C566   1.415       .  A
C560        C563   1.426       .  A
C561        C562   1.398       .  A
C561        H569   1.083       .  S
C562        C563   1.404       .  A
C562        H570   1.083       .  S
C563        C564   1.415       .  A
C564        C960   1.483       .  S
C564        C565   1.388       .  A
C565        C566   1.390       .  A
C565        H572   1.088       .  S
C566       C1024   1.480       .  S
C573       C1975   1.482       .  S
C573        C574   1.393       .  A
C573        C578   1.415       .  A
C574        C575   1.390       .  A
C574        H593   1.087       .  S
C575       C2048   1.481   1_554  S
C575        C576   1.411   1_554  A
C576        C577   1.424   1_556  A
C576        C583   1.404       .  A
C577        C578   1.424       .  A
C577        C582   1.418       .  A
C578        C579   1.406       .  A
C579        C580   1.399       .  A
C579        H589   1.083       .  S
C580        C581   1.404       .  A
C580        H590   1.083       .  S
C581        C582   1.426       .  A
C581        C588   1.416       .  A
C582        C585   1.424   1_554  A
C583        C584   1.395       .  A
C583        H591   1.083       .  S
C584        C585   1.405       .  A
C584        H592   1.083       .  S
C585        C586   1.410       .  A
C586       C1504   1.480       .  S
C586        C587   1.393   1_556  A
C587        C588   1.390       .  A
C587        H594   1.088       .  S
C588       C1591   1.486       .  S
C595        C596   1.401       .  A
C595        C600   1.407       .  A
C595        H605   1.084       .  S
C596        C601   1.489       .  S
C596        C597   1.414       .  A
C597        C598   1.406       .  A
C597        C602   1.508       .  S
C598        C599   1.404       .  A
C598        H603   1.084       .  S
C599        C600   1.416       .  A
C600        C604   1.504       .  S
C601        C606   1.404       .  A
C601        C610   1.407       .  A
C602        H618   1.109       .  S
C602        H619   1.110       .  S
C602        H620   1.111       .  S
C604        H615   1.110       .  S
C604        H616   1.110       .  S
C604        H617   1.110       .  S
C606        C607   1.401       .  A
C606        C611   1.507       .  S
C607        C608   1.415       .  A
C607        H612   1.084       .  S
C608        C609   1.415       .  A
C609        C610   1.414       .  A
C609        C613   1.504       .  S
C610        H614   1.081       .  S
C611        H621   1.110       .  S
C611        H622   1.110       .  S
C611        H623   1.110       .  S
C613        H624   1.110   1_455  S
C613        H625   1.110       .  S
C613        H626   1.110   1_455  S
C627        C628   1.397       .  A
C627        C632   1.402       .  A
C627        H637   1.084       .  S
C628        C633   1.486       .  S
C628        C629   1.415       .  A
C629        C630   1.407       .  A
C629        C634   1.507       .  S
C630        C631   1.404       .  A
C630        H635   1.084       .  S
C631        C632   1.426       .  A
C632        C636   1.511       .  S
C633        C638   1.413       .  A
C633        C642   1.404       .  A
C634        H650   1.109       .  S
C634        H651   1.110       .  S
C634        H652   1.110       .  S
C636        H647   1.111       .  S
C636        H648   1.108       .  S
C636        H649   1.111       .  S
C638        C639   1.402       .  A
C638        C643   1.508       .  S
C639        C640   1.403       .  A
C639        H644   1.085       .  S
C640        C641   1.413       .  A
C641        C642   1.403       .  A
C641        C645   1.506       .  S
C642        H646   1.084       .  S
C643        H653   1.111       .  S
C643        H654   1.109       .  S
C643        H655   1.111       .  S
C645        H656   1.110       .  S
C645        H657   1.110       .  S
C645        H658   1.111       .  S
C659        C660   1.404       .  A
C659        C664   1.405       .  A
C659        H669   1.084       .  S
C660        C665   1.490       .  S
C660        C661   1.414       .  A
C661        C662   1.406       .  A
C661        C666   1.507       .  S
C662        C663   1.404       .  A
C662        H667   1.084       .  S
C663        C664   1.414       .  A
C664        C668   1.507       .  S
C665        C670   1.418       .  A
C665        C674   1.398       .  A
C666        H682   1.109       .  S
C666        H683   1.110       .  S
C666        H684   1.111       .  S
C668        H679   1.111       .  S
C668        H680   1.110       .  S
C668        H681   1.111       .  S
C670        C671   1.407       .  A
C670        C675   1.507       .  S
C671        C672   1.405       .  A
C671        H676   1.084       .  S
C672        C673   1.424       .  A
C673        C674   1.405       .  A
C673        C677   1.508   1_545  S
C674        H678   1.084       .  S
C675        H685   1.110       .  S
C675        H686   1.108       .  S
C675        H687   1.110       .  S
C677        H688   1.108       .  S
C677        H689   1.110       .  S
C677        H690   1.111       .  S
C691        C692   1.406       .  A
C691        C696   1.413       .  A
C691        H701   1.084       .  S
C692        C697   1.493       .  S
C692        C693   1.407       .  A
C693        C694   1.407       .  A
C693        C698   1.506       .  S
C694        C695   1.412       .  A
C694        H699   1.083       .  S
C695        C696   1.413       .  A
C696        C700   1.498       .  S
C697        C702   1.411       .  A
C697        C706   1.404       .  A
C698        H714   1.110       .  S
C698        H715   1.110       .  S
C698        H716   1.111       .  S
C700        H711   1.110   1_455  S
C700        H712   1.108   1_455  S
C700        H713   1.110       .  S
C702        C703   1.409       .  A
C702        C707   1.505       .  S
C703        C704   1.409       .  A
C703        H708   1.084       .  S
C704        C705   1.413       .  A
C705        C706   1.406       .  A
C705        C709   1.505       .  S
C706        H710   1.084       .  S
C707        H717   1.111       .  S
C707        H718   1.110       .  S
C707        H719   1.110       .  S
C709        H720   1.110       .  S
C709        H721   1.110       .  S
C709        H722   1.110       .  S
C723        C724   1.400       .  A
C723        C728   1.402       .  A
C723        H733   1.084       .  S
C724        C729   1.483       .  S
C724        C725   1.413       .  A
C725        C726   1.405       .  A
C725        C730   1.506       .  S
C726        C727   1.403       .  A
C726        H731   1.084       .  S
C727        C728   1.415       .  A
C728        C732   1.505       .  S
C729        C734   1.416       .  A
C729        C738   1.398       .  A
C730        H746   1.110   1_545  S
C730        H747   1.109       .  S
C730        H748   1.111       .  S
C732        H743   1.111       .  S
C732        H744   1.110       .  S
C732        H745   1.110       .  S
C734        C735   1.407       .  A
C734        C739   1.508       .  S
C735        C736   1.403       .  A
C735        H740   1.084       .  S
C736        C737   1.418       .  A
C737        C738   1.403       .  A
C737        C741   1.508   1_545  S
C738        H742   1.084       .  S
C739        H749   1.111       .  S
C739        H750   1.110       .  S
C739        H751   1.109       .  S
C741        H752   1.111       .  S
C741        H753   1.109       .  S
C741        H754   1.110       .  S
C755        C756   1.406       .  A
C755        C760   1.404       .  A
C755        H765   1.084       .  S
C756        C761   1.488       .  S
C756        C757   1.413       .  A
C757        C758   1.404       .  A
C757        C762   1.508       .  S
C758        C759   1.405       .  A
C758        H763   1.085       .  S
C759        C760   1.411       .  A
C760        C764   1.508       .  S
C761        C766   1.417       .  A
C761        C770   1.400       .  A
C762        H778   1.108       .  S
C762        H779   1.111       .  S
C762        H780   1.111       .  S
C764        H775   1.111       .  S
C764        H776   1.108       .  S
C764        H777   1.110       .  S
C766        C767   1.408       .  A
C766        C771   1.507       .  S
C767        C768   1.402       .  A
C767        H772   1.084       .  S
C768        C769   1.416       .  A
C769        C770   1.398       .  A
C769        C773   1.507       .  S
C770        H774   1.084       .  S
C771        H781   1.111       .  S
C771        H782   1.108       .  S
C771        H783   1.110       .  S
C773        H784   1.111       .  S
C773        H785   1.110       .  S
C773        H786   1.110       .  S
C787        C788   1.399       .  A
C787        C792   1.406       .  A
C787        H797   1.084       .  S
C788        C793   1.488       .  S
C788        C789   1.416       .  A
C789        C790   1.407       .  A
C789        C794   1.508       .  S
C790        C791   1.401       .  A
C790        H795   1.084       .  S
C791        C792   1.419       .  A
C792        C796   1.507       .  S
C793        C798   1.414       .  A
C793        C802   1.399       .  A
C794        H810   1.110       .  S
C794        H811   1.108       .  S
C794        H812   1.110       .  S
C796        H807   1.111       .  S
C796        H808   1.110       .  S
C796        H809   1.109       .  S
C798        C799   1.408       .  A
C798        C803   1.506       .  S
C799        C800   1.404       .  A
C799        H804   1.084       .  S
C800        C801   1.418       .  A
C801        C802   1.403       .  A
C801        C805   1.505       .  S
C802        H806   1.084       .  S
C803        H813   1.111       .  S
C803        H814   1.110       .  S
C803        H815   1.109       .  S
C805        H816   1.110       .  S
C805        H817   1.110       .  S
C805        H818   1.111       .  S
C819        C820   1.400       .  A
C819        C824   1.404       .  A
C819        H829   1.084       .  S
C820        C825   1.472       .  S
C820        C821   1.402       .  A
C821        C822   1.399       .  A
C821        C826   1.507       .  S
C822        C823   1.413       .  A
C822        H827   1.083       .  S
C823        C824   1.422       .  A
C824        C828   1.507       .  S
C825        C830   1.409       .  A
C825        C834   1.400       .  A
C826        H842   1.110       .  S
C826        H843   1.110       .  S
C826        H844   1.111       .  S
C828        H839   1.109       .  S
C828        H840   1.111       .  S
C828        H841   1.110       .  S
C830        C831   1.401       .  A
C830        C835   1.506       .  S
C831        C832   1.403       .  A
C831        H836   1.084       .  S
C832        C833   1.411       .  A
C833        C834   1.398       .  A
C833        C837   1.507       .  S
C834        H838   1.085       .  S
C835        H845   1.111       .  S
C835        H846   1.110       .  S
C835        H847   1.110       .  S
C837        H848   1.110       .  S
C837        H849   1.109       .  S
C837        H850   1.110       .  S
C851        C852   1.402       .  A
C851        C856   1.403       .  A
C851        H861   1.084       .  S
C852        C857   1.491       .  S
C852        C853   1.413       .  A
C853        C854   1.409       .  A
C853        C858   1.505       .  S
C854        C855   1.406       .  A
C854        H859   1.084       .  S
C855        C856   1.415       .  A
C856        C860   1.506   1_455  S
C857        C862   1.406       .  A
C857        C866   1.409       .  A
C858        H874   1.109       .  S
C858        H875   1.111       .  S
C858        H876   1.111       .  S
C860        H871   1.110   1_655  S
C860        H872   1.110       .  S
C860        H873   1.109       .  S
C862        C863   1.399       .  A
C862        C867   1.509       .  S
C863        C864   1.414       .  A
C863        H868   1.083       .  S
C864        C865   1.416       .  A
C865        C866   1.415       .  A
C865        C869   1.505       .  S
C866        H870   1.084       .  S
C867        H877   1.111       .  S
C867        H878   1.109       .  S
C867        H879   1.110       .  S
C869        H880   1.108   1_455  S
C869        H881   1.110       .  S
C869        H882   1.111   1_455  S
C883        C884   1.402       .  A
C883        C888   1.403       .  A
C883        H893   1.085       .  S
C884        C889   1.484       .  S
C884        C885   1.410       .  A
C885        C886   1.406       .  A
C885        C890   1.505       .  S
C886        C887   1.405       .  A
C886        H891   1.084       .  S
C887        C888   1.414       .  A
C888        C892   1.506       .  S
C889        C894   1.412       .  A
C889        C898   1.400       .  A
C890        H906   1.110       .  S
C890        H907   1.110       .  S
C890        H908   1.111       .  S
C892        H903   1.111       .  S
C892        H904   1.110       .  S
C892        H905   1.109       .  S
C894        C895   1.401       .  A
C894        C899   1.504       .  S
C895        C896   1.400       .  A
C895        H900   1.084       .  S
C896        C897   1.420       .  A
C897        C898   1.409       .  A
C897        C901   1.508       .  S
C898        H902   1.084       .  S
C899        H909   1.110       .  S
C899        H910   1.110       .  S
C899        H911   1.110       .  S
C901        H912   1.108       .  S
C901        H913   1.110       .  S
C901        H914   1.111       .  S
C915        C916   1.403       .  A
C915        C920   1.406       .  A
C915        H925   1.083       .  S
C916        C921   1.496       .  S
C916        C917   1.418       .  A
C917        C918   1.408       .  A
C917        C922   1.507       .  S
C918        C919   1.403       .  A
C918        H923   1.084       .  S
C919        C920   1.415       .  A
C920        C924   1.504       .  S
C921        C926   1.413       .  A
C921        C930   1.408       .  A
C922        H938   1.108       .  S
C922        H939   1.110       .  S
C922        H940   1.111       .  S
C924        H935   1.110       .  S
C924        H936   1.110       .  S
C924        H937   1.111       .  S
C926        C927   1.408       .  A
C926        C931   1.506       .  S
C927        C928   1.406       .  A
C927        H932   1.084       .  S
C928        C929   1.412       .  A
C929        C930   1.407       .  A
C929        C933   1.506       .  S
C930        H934   1.084       .  S
C931        H941   1.111       .  S
C931        H942   1.109       .  S
C931        H943   1.110       .  S
C933        H944   1.107       .  S
C933        H945   1.110       .  S
C933        H946   1.111       .  S
C947        C948   1.403       .  A
C947        C952   1.411       .  A
C947        H957   1.084       .  S
C948        C953   1.487       .  S
C948        C949   1.405       .  A
C949        C950   1.403       .  A
C949        C954   1.507       .  S
C950        C951   1.415       .  A
C950        H955   1.083       .  S
C951        C952   1.424       .  A
C952        C956   1.508       .  S
C953        C958   1.411       .  A
C953        C962   1.401       .  A
C954        H970   1.110       .  S
C954        H971   1.110       .  S
C954        H972   1.111       .  S
C956        H967   1.109       .  S
C956        H968   1.110       .  S
C956        H969   1.110       .  S
C958        C959   1.407       .  A
C958        C963   1.506       .  S
C959        C960   1.407       .  A
C959        H964   1.084       .  S
C960        C961   1.415       .  A
C961        C962   1.403       .  A
C961        C965   1.506       .  S
C962        H966   1.084       .  S
C963        H973   1.111       .  S
C963        H974   1.110       .  S
C963        H975   1.110       .  S
C965        H976   1.111       .  S
C965        H977   1.108       .  S
C965        H978   1.110       .  S
C979        C980   1.404       .  A
C979        C984   1.403       .  A
C979        H989   1.084       .  S
C980        C985   1.495       .  S
C980        C981   1.423       .  A
C981        C982   1.407       .  A
C981        C986   1.509       .  S
C982        C983   1.400       .  A
C982        H987   1.085       .  S
C983        C984   1.415       .  A
C984        C988   1.508       .  S
C985        C990   1.417       .  A
C985        C994   1.402       .  A
C986       H1002   1.107       .  S
C986       H1003   1.110       .  S
C986       H1004   1.110       .  S
C988        H999   1.110       .  S
C988       H1000   1.110       .  S
C988       H1001   1.109       .  S
C990        C991   1.412       .  A
C990        C995   1.506       .  S
C991        C992   1.405       .  A
C991        H996   1.084       .  S
C992        C993   1.418       .  A
C993        C994   1.402       .  A
C993        C997   1.506       .  S
C994        H998   1.084       .  S
C995       H1005   1.111       .  S
C995       H1006   1.110       .  S
C995       H1007   1.105       .  S
C997       H1008   1.110       .  S
C997       H1009   1.110       .  S
C997       H1010   1.111       .  S
C1011      C1012   1.395       .  A
C1011      C1016   1.404       .  A
C1011      H1021   1.084   1_545  S
C1012      C1017   1.485       .  S
C1012      C1013   1.413       .  A
C1013      C1014   1.408       .  A
C1013      C1018   1.507       .  S
C1014      C1015   1.407       .  A
C1014      H1019   1.084       .  S
C1015      C1016   1.429       .  A
C1016      C1020   1.510   1_545  S
C1017      C1022   1.411       .  A
C1017      C1026   1.402       .  A
C1018      H1034   1.109       .  S
C1018      H1035   1.111       .  S
C1018      H1036   1.109       .  S
C1020      H1031   1.111       .  S
C1020      H1032   1.109       .  S
C1020      H1033   1.110       .  S
C1022      C1023   1.406       .  A
C1022      C1027   1.506       .  S
C1023      C1024   1.405       .  A
C1023      H1028   1.084       .  S
C1024      C1025   1.415       .  A
C1025      C1026   1.402       .  A
C1025      C1029   1.507       .  S
C1026      H1030   1.084       .  S
C1027      H1037   1.111       .  S
C1027      H1038   1.110       .  S
C1027      H1039   1.111       .  S
C1029      H1040   1.110       .  S
C1029      H1041   1.109       .  S
C1029      H1042   1.111       .  S
C1043      C1044   1.401       .  A
C1043      C1048   1.398       .  A
C1043      H1053   1.085       .  S
C1044      C1049   1.478       .  S
C1044      C1045   1.411       .  A
C1045      C1046   1.401       .  A
C1045      C1050   1.506       .  S
C1046      C1047   1.402       .  A
C1046      H1051   1.084       .  S
C1047      C1048   1.412       .  A
C1048      C1052   1.507       .  S
C1049      C1054   1.413       .  A
C1049      C1058   1.396       .  A
C1050      H1066   1.110       .  S
C1050      H1067   1.110       .  S
C1050      H1068   1.111       .  S
C1052      H1063   1.111       .  S
C1052      H1064   1.110       .  S
C1052      H1065   1.108       .  S
C1054      C1055   1.401       .  A
C1054      C1059   1.506       .  S
C1055      C1056   1.402       .  A
C1055      H1060   1.084       .  S
C1056      C1057   1.423       .  A
C1057      C1058   1.403       .  A
C1057      C1061   1.509   1_545  S
C1058      H1062   1.084       .  S
C1059      H1069   1.111       .  S
C1059      H1070   1.109       .  S
C1059      H1071   1.109       .  S
C1061      H1072   1.111       .  S
C1061      H1073   1.109       .  S
C1061      H1074   1.110       .  S
C1075      C1076   1.396       .  A
C1075      C1080   1.403       .  A
C1075      H1085   1.084       .  S
C1076      C1081   1.493       .  S
C1076      C1077   1.416       .  A
C1077      C1078   1.415       .  A
C1077      C1082   1.505   1_455  S
C1078      C1079   1.405       .  A
C1078      H1083   1.084       .  S
C1079      C1080   1.423       .  A
C1080      C1084   1.508       .  S
C1081      C1086   1.411       .  A
C1081      C1090   1.403       .  A
C1082      H1098   1.109       .  S
C1082      H1099   1.109       .  S
C1082      H1100   1.110       .  S
C1084      H1095   1.110       .  S
C1084      H1096   1.111       .  S
C1084      H1097   1.109       .  S
C1086      C1087   1.412       .  A
C1086      C1091   1.504       .  S
C1087      C1088   1.410       .  A
C1087      H1092   1.084       .  S
C1088      C1089   1.415       .  A
C1089      C1090   1.404       .  A
C1089      C1093   1.505       .  S
C1090      H1094   1.085       .  S
C1091      H1101   1.111       .  S
C1091      H1102   1.110       .  S
C1091      H1103   1.109       .  S
C1093      H1104   1.110       .  S
C1093      H1105   1.110       .  S
C1093      H1106   1.111       .  S
C1107      C1108   1.399       .  A
C1107      C1112   1.407       .  A
C1107      H1117   1.084       .  S
C1108      C1113   1.488       .  S
C1108      C1109   1.414       .  A
C1109      C1110   1.407       .  A
C1109      C1114   1.507       .  S
C1110      C1111   1.404       .  A
C1110      H1115   1.084       .  S
C1111      C1112   1.422       .  A
C1112      C1116   1.509       .  S
C1113      C1118   1.410       .  A
C1113      C1122   1.402       .  A
C1114      H1130   1.110       .  S
C1114      H1131   1.110       .  S
C1114      H1132   1.110       .  S
C1116      H1127   1.111       .  S
C1116      H1128   1.108       .  S
C1116      H1129   1.110       .  S
C1118      C1119   1.409       .  A
C1118      C1123   1.505       .  S
C1119      C1120   1.408       .  A
C1119      H1124   1.084       .  S
C1120      C1121   1.415       .  A
C1121      C1122   1.404       .  A
C1121      C1125   1.506       .  S
C1122      H1126   1.085       .  S
C1123      H1133   1.111       .  S
C1123      H1134   1.110       .  S
C1123      H1135   1.110       .  S
C1125      H1136   1.110       .  S
C1125      H1137   1.108       .  S
C1125      H1138   1.111       .  S
C1139      C1140   1.399       .  A
C1139      C1144   1.401       .  A
C1139      H1149   1.083       .  S
C1140      C1145   1.486       .  S
C1140      C1141   1.419       .  A
C1141      C1142   1.407       .  A
C1141      C1146   1.509       .  S
C1142      C1143   1.399       .  A
C1142      H1147   1.084       .  S
C1143      C1144   1.415       .  A
C1144      C1148   1.509       .  S
C1145      C1150   1.414       .  A
C1145      C1154   1.404       .  A
C1146      H1162   1.108       .  S
C1146      H1163   1.109       .  S
C1146      H1164   1.111       .  S
C1148      H1159   1.111       .  S
C1148      H1160   1.109       .  S
C1148      H1161   1.110       .  S
C1150      C1151   1.404       .  A
C1150      C1155   1.507       .  S
C1151      C1152   1.405       .  A
C1151      H1156   1.084       .  S
C1152      C1153   1.411       .  A
C1153      C1154   1.402       .  A
C1153      C1157   1.504       .  S
C1154      H1158   1.084       .  S
C1155      H1165   1.111       .  S
C1155      H1166   1.108       .  S
C1155      H1167   1.111       .  S
C1157      H1168   1.110       .  S
C1157      H1169   1.109       .  S
C1157      H1170   1.110       .  S
C1171      C1172   1.403       .  A
C1171      C1176   1.405       .  A
C1171      H1181   1.085       .  S
C1172      C1177   1.475       .  S
C1172      C1173   1.404       .  A
C1173      C1174   1.399       .  A
C1173      C1178   1.507   1_545  S
C1174      C1175   1.410       .  A
C1174      H1179   1.084   1_545  S
C1175      C1176   1.418       .  A
C1176      C1180   1.507       .  S
C1177      C1182   1.409       .  A
C1177      C1186   1.400       .  A
C1178      H1194   1.110       .  S
C1178      H1195   1.108       .  S
C1178      H1196   1.111       .  S
C1180      H1191   1.110       .  S
C1180      H1192   1.111       .  S
C1180      H1193   1.109       .  S
C1182      C1183   1.402       .  A
C1182      C1187   1.506       .  S
C1183      C1184   1.405       .  A
C1183      H1188   1.084       .  S
C1184      C1185   1.413       .  A
C1185      C1186   1.399       .  A
C1185      C1189   1.506       .  S
C1186      H1190   1.085       .  S
C1187      H1197   1.111       .  S
C1187      H1198   1.110       .  S
C1187      H1199   1.108       .  S
C1189      H1200   1.110       .  S
C1189      H1201   1.108       .  S
C1189      H1202   1.110       .  S
C1203      C1204   1.399       .  A
C1203      C1208   1.397       .  A
C1203      H1213   1.084       .  S
C1204      C1209   1.483       .  S
C1204      C1205   1.421       .  A
C1205      C1206   1.403       .  A
C1205      C1210   1.509       .  S
C1206      C1207   1.400       .  A
C1206      H1211   1.085       .  S
C1207      C1208   1.417       .  A
C1208      C1212   1.509       .  S
C1209      C1214   1.414       .  A
C1209      C1218   1.404       .  A
C1210      H1226   1.110       .  S
C1210      H1227   1.107       .  S
C1210      H1228   1.109       .  S
C1212      H1223   1.110       .  S
C1212      H1224   1.111       .  S
C1212      H1225   1.108       .  S
C1214      C1215   1.400       .  A
C1214      C1219   1.509       .  S
C1215      C1216   1.403       .  A
C1215      H1220   1.085       .  S
C1216      C1217   1.412       .  A
C1217      C1218   1.402       .  A
C1217      C1221   1.505       .  S
C1218      H1222   1.084       .  S
C1219      H1229   1.111       .  S
C1219      H1230   1.108       .  S
C1219      H1231   1.111       .  S
C1221      H1232   1.110       .  S
C1221      H1233   1.108       .  S
C1221      H1234   1.111       .  S
C1235      C1236   1.400       .  A
C1235      C1240   1.402       .  A
C1235      H1245   1.084       .  S
C1236      C1241   1.480       .  S
C1236      C1237   1.412       .  A
C1237      C1238   1.404       .  A
C1237      C1242   1.507       .  S
C1238      C1239   1.402       .  A
C1238      H1243   1.084       .  S
C1239      C1240   1.415       .  A
C1240      C1244   1.507       .  S
C1241      C1246   1.411       .  A
C1241      C1250   1.398       .  A
C1242      H1258   1.110       .  S
C1242      H1259   1.109       .  S
C1242      H1260   1.111       .  S
C1244      H1255   1.110       .  S
C1244      H1256   1.110       .  S
C1244      H1257   1.109       .  S
C1246      C1247   1.402       .  A
C1246      C1251   1.507       .  S
C1247      C1248   1.405       .  A
C1247      H1252   1.084       .  S
C1248      C1249   1.423       .  A
C1249      C1250   1.406       .  A
C1249      C1253   1.509   1_545  S
C1250      H1254   1.084       .  S
C1251      H1261   1.109       .  S
C1251      H1262   1.110       .  S
C1251      H1263   1.109       .  S
C1253      H1264   1.111       .  S
C1253      H1265   1.110       .  S
C1253      H1266   1.109       .  S
C1267      C1268   1.398       .  A
C1267      C1272   1.402       .  A
C1267      H1277   1.084       .  S
C1268      C1273   1.491       .  S
C1268      C1269   1.417       .  A
C1269      C1270   1.412       .  A
C1269      C1274   1.507   1_556  S
C1270      C1271   1.404       .  A
C1270      H1275   1.084   1_556  S
C1271      C1272   1.421       .  A
C1272      C1276   1.507       .  S
C1273      C1278   1.417       .  A
C1273      C1282   1.402       .  A
C1274      H1290   1.110       .  S
C1274      H1291   1.110       .  S
C1274      H1292   1.110       .  S
C1276      H1287   1.110       .  S
C1276      H1288   1.111       .  S
C1276      H1289   1.109       .  S
C1278      C1279   1.406       .  A
C1278      C1283   1.508       .  S
C1279      C1280   1.402       .  A
C1279      H1284   1.084       .  S
C1280      C1281   1.416       .  A
C1281      C1282   1.405       .  A
C1281      C1285   1.505       .  S
C1282      H1286   1.084       .  S
C1283      H1293   1.111       .  S
C1283      H1294   1.110       .  S
C1283      H1295   1.111       .  S
C1285      H1296   1.110       .  S
C1285      H1297   1.110   1_556  S
C1285      H1298   1.111   1_556  S
C1299      C1300   1.404       .  A
C1299      C1304   1.406       .  A
C1299      H1309   1.084       .  S
C1300      C1305   1.487       .  S
C1300      C1301   1.408       .  A
C1301      C1302   1.406       .  A
C1301      C1306   1.506       .  S
C1302      C1303   1.409       .  A
C1302      H1307   1.084       .  S
C1303      C1304   1.417       .  A
C1304      C1308   1.508       .  S
C1305      C1310   1.413       .  A
C1305      C1314   1.401       .  A
C1306      H1322   1.110       .  S
C1306      H1323   1.111       .  S
C1306      H1324   1.111       .  S
C1308      H1319   1.111       .  S
C1308      H1320   1.109   1_556  S
C1308      H1321   1.105       .  S
C1310      C1311   1.407       .  A
C1310      C1315   1.506       .  S
C1311      C1312   1.405       .  A
C1311      H1316   1.084       .  S
C1312      C1313   1.415       .  A
C1313      C1314   1.404       .  A
C1313      C1317   1.504   1_556  S
C1314      H1318   1.084       .  S
C1315      H1325   1.111       .  S
C1315      H1326   1.110       .  S
C1315      H1327   1.110       .  S
C1317      H1328   1.111       .  S
C1317      H1329   1.110       .  S
C1317      H1330   1.110   1_554  S
C1331      C1332   1.403       .  A
C1331      C1336   1.405       .  A
C1331      H1341   1.085       .  S
C1332      C1337   1.481       .  S
C1332      C1333   1.406       .  A
C1333      C1334   1.403       .  A
C1333      C1338   1.507       .  S
C1334      C1335   1.413       .  A
C1334      H1339   1.084       .  S
C1335      C1336   1.418       .  A
C1336      C1340   1.506       .  S
C1337      C1342   1.410       .  A
C1337      C1346   1.402       .  A
C1338      H1354   1.109       .  S
C1338      H1355   1.110       .  S
C1338      H1356   1.111       .  S
C1340      H1351   1.108       .  S
C1340      H1352   1.110       .  S
C1340      H1353   1.110       .  S
C1342      C1343   1.404       .  A
C1342      C1347   1.506       .  S
C1343      C1344   1.405       .  A
C1343      H1348   1.084       .  S
C1344      C1345   1.412       .  A
C1345      C1346   1.401       .  A
C1345      C1349   1.508       .  S
C1346      H1350   1.084       .  S
C1347      H1357   1.111       .  S
C1347      H1358   1.109       .  S
C1347      H1359   1.110       .  S
C1349      H1360   1.111       .  S
C1349      H1361   1.111       .  S
C1349      H1362   1.109       .  S
C1363      C1364   1.400       .  A
C1363      C1368   1.406       .  A
C1363      H1373   1.084       .  S
C1364      C1369   1.491       .  S
C1364      C1365   1.415       .  A
C1365      C1366   1.409       .  A
C1365      C1370   1.506       .  S
C1366      C1367   1.404       .  A
C1366      H1371   1.084       .  S
C1367      C1368   1.419       .  A
C1368      C1372   1.505       .  S
C1369      C1374   1.409       .  A
C1369      C1378   1.406       .  A
C1370      H1386   1.110       .  S
C1370      H1387   1.110       .  S
C1370      H1388   1.111       .  S
C1372      H1383   1.110       .  S
C1372      H1384   1.111       .  S
C1372      H1385   1.110       .  S
C1374      C1375   1.409       .  A
C1374      C1379   1.505       .  S
C1375      C1376   1.408       .  A
C1375      H1380   1.084       .  S
C1376      C1377   1.413       .  A
C1377      C1378   1.407       .  A
C1377      C1381   1.506       .  S
C1378      H1382   1.084       .  S
C1379      H1389   1.111       .  S
C1379      H1390   1.110       .  S
C1379      H1391   1.110       .  S
C1381      H1392   1.111       .  S
C1381      H1393   1.108       .  S
C1381      H1394   1.110       .  S
C1395      C1396   1.395       .  A
C1395      C1400   1.403       .  A
C1395      H1405   1.084       .  S
C1396      C1401   1.478       .  S
C1396      C1397   1.414       .  A
C1397      C1398   1.404       .  A
C1397      C1402   1.508       .  S
C1398      C1399   1.407       .  A
C1398      H1403   1.084       .  S
C1399      C1400   1.427       .  A
C1400      C1404   1.511       .  S
C1401      C1406   1.413       .  A
C1401      C1410   1.402       .  A
C1402      H1418   1.108       .  S
C1402      H1419   1.108       .  S
C1402      H1420   1.110       .  S
C1404      H1415   1.111       .  S
C1404      H1416   1.110       .  S
C1404      H1417   1.110       .  S
C1406      C1407   1.402       .  A
C1406      C1411   1.507       .  S
C1407      C1408   1.403       .  A
C1407      H1412   1.085       .  S
C1408      C1409   1.412       .  A
C1409      C1410   1.401       .  A
C1409      C1413   1.505       .  S
C1410      H1414   1.084       .  S
C1411      H1421   1.110       .  S
C1411      H1422   1.110       .  S
C1411      H1423   1.108       .  S
C1413      H1424   1.110       .  S
C1413      H1425   1.110       .  S
C1413      H1426   1.110       .  S
C1427      C1428   1.409       .  A
C1427      C1432   1.411       .  A
C1427      H1437   1.084       .  S
C1428      C1433   1.484       .  S
C1428      C1429   1.408       .  A
C1429      C1430   1.396       .  A
C1429      C1434   1.509       .  S
C1430      C1431   1.408       .  A
C1430      H1435   1.084       .  S
C1431      C1432   1.411       .  A
C1432      C1436   1.505       .  S
C1433      C1438   1.413       .  A
C1433      C1442   1.401       .  A
C1434      H1450   1.108       .  S
C1434      H1451   1.110       .  S
C1434      H1452   1.111       .  S
C1436      H1447   1.111       .  S
C1436      H1448   1.109       .  S
C1436      H1449   1.110       .  S
C1438      C1439   1.406       .  A
C1438      C1443   1.506       .  S
C1439      C1440   1.404       .  A
C1439      H1444   1.084       .  S
C1440      C1441   1.413       .  A
C1441      C1442   1.398       .  A
C1441      C1445   1.506   1_556  S
C1442      H1446   1.084       .  S
C1443      H1453   1.111       .  S
C1443      H1454   1.109       .  S
C1443      H1455   1.110       .  S
C1445      H1456   1.110       .  S
C1445      H1457   1.108       .  S
C1445      H1458   1.110   1_554  S
C1459      C1460   1.400       .  A
C1459      C1464   1.403       .  A
C1459      H1469   1.084       .  S
C1460      C1465   1.482       .  S
C1460      C1461   1.413       .  A
C1461      C1462   1.405       .  A
C1461      C1466   1.507       .  S
C1462      C1463   1.403       .  A
C1462      H1467   1.084       .  S
C1463      C1464   1.415       .  A
C1464      C1468   1.505       .  S
C1465      C1470   1.405       .  A
C1465      C1474   1.404       .  A
C1466      H1482   1.110       .  S
C1466      H1483   1.110       .  S
C1466      H1484   1.111       .  S
C1468      H1479   1.110       .  S
C1468      H1480   1.110       .  S
C1468      H1481   1.110       .  S
C1470      C1471   1.403       .  A
C1470      C1475   1.506       .  S
C1471      C1472   1.411       .  A
C1471      H1476   1.084       .  S
C1472      C1473   1.416       .  A
C1473      C1474   1.407       .  A
C1473      C1477   1.507       .  S
C1474      H1478   1.084       .  S
C1475      H1485   1.111       .  S
C1475      H1486   1.110       .  S
C1475      H1487   1.110       .  S
C1477      H1488   1.111       .  S
C1477      H1489   1.110       .  S
C1477      H1490   1.110       .  S
C1491      C1492   1.399       .  A
C1491      C1496   1.400       .  A
C1491      H1501   1.085       .  S
C1492      C1497   1.488       .  S
C1492      C1493   1.418       .  A
C1493      C1494   1.406       .  A
C1493      C1498   1.508       .  S
C1494      C1495   1.401       .  A
C1494      H1499   1.084       .  S
C1495      C1496   1.417       .  A
C1496      C1500   1.508       .  S
C1497      C1502   1.418       .  A
C1497      C1506   1.405       .  A
C1498      H1514   1.108   1_556  S
C1498      H1515   1.111   1_556  S
C1498      H1516   1.109       .  S
C1500      H1511   1.110       .  S
C1500      H1512   1.111       .  S
C1500      H1513   1.109       .  S
C1502      C1503   1.401       .  A
C1502      C1507   1.510       .  S
C1503      C1504   1.404       .  A
C1503      H1508   1.085       .  S
C1504      C1505   1.411       .  A
C1505      C1506   1.403       .  A
C1505      C1509   1.505       .  S
C1506      H1510   1.084       .  S
C1507      H1517   1.111       .  S
C1507      H1518   1.110       .  S
C1507      H1519   1.104       .  S
C1509      H1520   1.110       .  S
C1509      H1521   1.107       .  S
C1509      H1522   1.110       .  S
C1523      C1524   1.401       .  A
C1523      C1528   1.403       .  A
C1523      H1533   1.085       .  S
C1524      C1529   1.485       .  S
C1524      C1525   1.410       .  A
C1525      C1526   1.408       .  A
C1525      C1530   1.505       .  S
C1526      C1527   1.407       .  A
C1526      H1531   1.084       .  S
C1527      C1528   1.416       .  A
C1528      C1532   1.507       .  S
C1529      C1534   1.404       .  A
C1529      C1538   1.404       .  A
C1530      H1546   1.110       .  S
C1530      H1547   1.110       .  S
C1530      H1548   1.111       .  S
C1532      H1543   1.110       .  S
C1532      H1544   1.111       .  S
C1532      H1545   1.108       .  S
C1534      C1535   1.402   1_545  A
C1534      C1539   1.507   1_545  S
C1535      C1536   1.416   1_565  A
C1535      H1540   1.083       .  S
C1536      C1537   1.422       .  A
C1537      C1538   1.411       .  A
C1537      C1541   1.507       .  S
C1538      H1542   1.084       .  S
C1539      H1549   1.111       .  S
C1539      H1550   1.110       .  S
C1539      H1551   1.110       .  S
C1541      H1552   1.110       .  S
C1541      H1553   1.110       .  S
C1541      H1554   1.110       .  S
C1555      C1556   1.403       .  A
C1555      C1560   1.405       .  A
C1555      H1565   1.085       .  S
C1556      C1561   1.478       .  S
C1556      C1557   1.407       .  A
C1557      C1558   1.402       .  A
C1557      C1562   1.507   1_545  S
C1558      C1559   1.410       .  A
C1558      H1563   1.084   1_545  S
C1559      C1560   1.416       .  A
C1560      C1564   1.507       .  S
C1561      C1566   1.411       .  A
C1561      C1570   1.400       .  A
C1562      H1578   1.110       .  S
C1562      H1579   1.109       .  S
C1562      H1580   1.110       .  S
C1564      H1575   1.109       .  S
C1564      H1576   1.110       .  S
C1564      H1577   1.110       .  S
C1566      C1567   1.402       .  A
C1566      C1571   1.506       .  S
C1567      C1568   1.402       .  A
C1567      H1572   1.084       .  S
C1568      C1569   1.414       .  A
C1569      C1570   1.400       .  A
C1569      C1573   1.506       .  S
C1570      H1574   1.084       .  S
C1571      H1581   1.111       .  S
C1571      H1582   1.110       .  S
C1571      H1583   1.110   1_545  S
C1573      H1584   1.110       .  S
C1573      H1585   1.110       .  S
C1573      H1586   1.110       .  S
C1587      C1588   1.401       .  A
C1587      C1592   1.406       .  A
C1587      H1597   1.084       .  S
C1588      C1593   1.491       .  S
C1588      C1589   1.414       .  A
C1589      C1590   1.407       .  A
C1589      C1594   1.506       .  S
C1590      C1591   1.403       .  A
C1590      H1595   1.084       .  S
C1591      C1592   1.417       .  A
C1592      C1596   1.506       .  S
C1593      C1598   1.413       .  A
C1593      C1602   1.396       .  A
C1594      H1610   1.110       .  S
C1594      H1611   1.110       .  S
C1594      H1612   1.111       .  S
C1596      H1607   1.111       .  S
C1596      H1608   1.110       .  S
C1596      H1609   1.110       .  S
C1598      C1599   1.408       .  A
C1598      C1603   1.500       .  S
C1599      C1600   1.403       .  A
C1599      H1604   1.084       .  S
C1600      C1601   1.426       .  A
C1601      C1602   1.406       .  A
C1601      C1605   1.508       .  S
C1602      H1606   1.084       .  S
C1603      H1613   1.110       .  S
C1603      H1614   1.110       .  S
C1603      H1615   1.107       .  S
C1605      H1616   1.108       .  S
C1605      H1617   1.111       .  S
C1605      H1618   1.111       .  S
C1619      C1620   1.404       .  A
C1619      C1624   1.404       .  A
C1619      H1629   1.084       .  S
C1620      C1625   1.489       .  S
C1620      C1621   1.409       .  A
C1621      C1622   1.408       .  A
C1621      C1626   1.505       .  S
C1622      C1623   1.409       .  A
C1622      H1627   1.084       .  S
C1623      C1624   1.413       .  A
C1624      C1628   1.505       .  S
C1625      C1630   1.406       .  A
C1625      C1634   1.408       .  A
C1626      H1642   1.110       .  S
C1626      H1643   1.110       .  S
C1626      H1644   1.111       .  S
C1628      H1639   1.110       .  S
C1628      H1640   1.111       .  S
C1628      H1641   1.109       .  S
C1630      C1631   1.401       .  A
C1630      C1635   1.507       .  S
C1631      C1632   1.410       .  A
C1631      H1636   1.084       .  S
C1632      C1633   1.412       .  A
C1633      C1634   1.413       .  A
C1633      C1637   1.502   1_455  S
C1634      H1638   1.083   1_455  S
C1635      H1645   1.111       .  S
C1635      H1646   1.110       .  S
C1635      H1647   1.110       .  S
C1637      H1648   1.110       .  S
C1637      H1649   1.110       .  S
C1637      H1650   1.109       .  S
C1651      C1652   1.401       .  A
C1651      C1656   1.402       .  A
C1651      H1661   1.085       .  S
C1652      C1657   1.477       .  S
C1652      C1653   1.408       .  A
C1653      C1654   1.401       .  A
C1653      C1658   1.506       .  S
C1654      C1655   1.405       .  A
C1654      H1659   1.084       .  S
C1655      C1656   1.414       .  A
C1656      C1660   1.506       .  S
C1657      C1662   1.405       .  A
C1657      C1666   1.402       .  A
C1658      H1674   1.110       .  S
C1658      H1675   1.110       .  S
C1658      H1676   1.111       .  S
C1660      H1671   1.110       .  S
C1660      H1672   1.110       .  S
C1660      H1673   1.107       .  S
C1662      C1663   1.401       .  A
C1662      C1667   1.506       .  S
C1663      C1664   1.409       .  A
C1663      H1668   1.084       .  S
C1664      C1665   1.417       .  A
C1665      C1666   1.404       .  A
C1665      C1669   1.508       .  S
C1666      H1670   1.084       .  S
C1667      H1677   1.111       .  S
C1667      H1678   1.110       .  S
C1667      H1679   1.110       .  S
C1669      H1680   1.111       .  S
C1669      H1681   1.110       .  S
C1669      H1682   1.109       .  S
C1683      C1684   1.399       .  A
C1683      C1688   1.408       .  A
C1683      H1693   1.084       .  S
C1684      C1689   1.487       .  S
C1684      C1685   1.415       .  A
C1685      C1686   1.406       .  A
C1685      C1690   1.508       .  S
C1686      C1687   1.403       .  A
C1686      H1691   1.084       .  S
C1687      C1688   1.421       .  A
C1688      C1692   1.508       .  S
C1689      C1694   1.414       .  A
C1689      C1698   1.400       .  A
C1690      H1706   1.110   1_556  S
C1690      H1707   1.110       .  S
C1690      H1708   1.111   1_556  S
C1692      H1703   1.111       .  S
C1692      H1704   1.110       .  S
C1692      H1705   1.108       .  S
C1694      C1695   1.406       .  A
C1694      C1699   1.506       .  S
C1695      C1696   1.403       .  A
C1695      H1700   1.084       .  S
C1696      C1697   1.416       .  A
C1697      C1698   1.403       .  A
C1697      C1701   1.506   1_556  S
C1698      H1702   1.084       .  S
C1699      H1709   1.111       .  S
C1699      H1710   1.110       .  S
C1699      H1711   1.110       .  S
C1701      H1712   1.110       .  S
C1701      H1713   1.110       .  S
C1701      H1714   1.111       .  S
C1715      C1716   1.401       .  A
C1715      C1720   1.402       .  A
C1715      H1725   1.084       .  S
C1716      C1721   1.493       .  S
C1716      C1717   1.417       .  A
C1717      C1718   1.409       .  A
C1717      C1722   1.506       .  S
C1718      C1719   1.402       .  A
C1718      H1723   1.084       .  S
C1719      C1720   1.418       .  A
C1720      C1724   1.507       .  S
C1721      C1726   1.413       .  A
C1721      C1730   1.406       .  A
C1722      H1738   1.108       .  S
C1722      H1739   1.110       .  S
C1722      H1740   1.111       .  S
C1724      H1735   1.110       .  S
C1724      H1736   1.111   1_455  S
C1724      H1737   1.110       .  S
C1726      C1727   1.407       .  A
C1726      C1731   1.507       .  S
C1727      C1728   1.406       .  A
C1727      H1732   1.084       .  S
C1728      C1729   1.413       .  A
C1729      C1730   1.407       .  A
C1729      C1733   1.507       .  S
C1730      H1734   1.084       .  S
C1731      H1741   1.111       .  S
C1731      H1742   1.108       .  S
C1731      H1743   1.110       .  S
C1733      H1744   1.109   1_455  S
C1733      H1745   1.110       .  S
C1733      H1746   1.111   1_455  S
C1747      C1748   1.402       .  A
C1747      C1752   1.409       .  A
C1747      H1757   1.084       .  S
C1748      C1753   1.481       .  S
C1748      C1749   1.403       .  A
C1749      C1750   1.400       .  A
C1749      C1754   1.507       .  S
C1750      C1751   1.414       .  A
C1750      H1755   1.083       .  S
C1751      C1752   1.424       .  A
C1752      C1756   1.508       .  S
C1753      C1758   1.411       .  A
C1753      C1762   1.400       .  A
C1754      H1770   1.110       .  S
C1754      H1771   1.110       .  S
C1754      H1772   1.111       .  S
C1756      H1767   1.111   1_556  S
C1756      H1768   1.110       .  S
C1756      H1769   1.110       .  S
C1758      C1759   1.407       .  A
C1758      C1763   1.505       .  S
C1759      C1760   1.405       .  A
C1759      H1764   1.084       .  S
C1760      C1761   1.414       .  A
C1761      C1762   1.400       .  A
C1761      C1765   1.506       .  S
C1762      H1766   1.085       .  S
C1763      H1773   1.111       .  S
C1763      H1774   1.110       .  S
C1763      H1775   1.110       .  S
C1765      H1776   1.110       .  S
C1765      H1777   1.110       .  S
C1765      H1778   1.109       .  S
C1779      C1780   1.406       .  A
C1779      C1784   1.411       .  A
C1779      H1789   1.084       .  S
C1780      C1785   1.489       .  S
C1780      C1781   1.407       .  A
C1781      C1782   1.405       .  A
C1781      C1786   1.506       .  S
C1782      C1783   1.410       .  A
C1782      H1787   1.084       .  S
C1783      C1784   1.412       .  A
C1784      C1788   1.500       .  S
C1785      C1790   1.410       .  A
C1785      C1794   1.403       .  A
C1786      H1802   1.110       .  S
C1786      H1803   1.110       .  S
C1786      H1804   1.111       .  S
C1788      H1799   1.109       .  S
C1788      H1800   1.109       .  S
C1788      H1801   1.110       .  S
C1790      C1791   1.409       .  A
C1790      C1795   1.504       .  S
C1791      C1792   1.409       .  A
C1791      H1796   1.084       .  S
C1792      C1793   1.414       .  A
C1793      C1794   1.404       .  A
C1793      C1797   1.505       .  S
C1794      H1798   1.085       .  S
C1795      H1805   1.111       .  S
C1795      H1806   1.110       .  S
C1795      H1807   1.110       .  S
C1797      H1808   1.111       .  S
C1797      H1809   1.110       .  S
C1797      H1810   1.110       .  S
C1811      C1812   1.403       .  A
C1811      C1816   1.409       .  A
C1811      H1821   1.084       .  S
C1812      C1817   1.507       .  S
C1812      C1813   1.420       .  A
C1813      C1814   1.414       .  A
C1813      C1818   1.508       .  S
C1814      C1815   1.404       .  A
C1814      H1819   1.084       .  S
C1815      C1816   1.421       .  A
C1816      C1820   1.507       .  S
C1817      C1822   1.417       .  A
C1817      C1826   1.408       .  A
C1818      H1834   1.108       .  S
C1818      H1835   1.109       .  S
C1818      H1836   1.111       .  S
C1820      H1831   1.110       .  S
C1820      H1832   1.109       .  S
C1820      H1833   1.109       .  S
C1822      C1823   1.410       .  A
C1822      C1827   1.507       .  S
C1823      C1824   1.408       .  A
C1823      H1828   1.084       .  S
C1824      C1825   1.414       .  A
C1825      C1826   1.410       .  A
C1825      C1829   1.505       .  S
C1826      H1830   1.084       .  S
C1827      H1837   1.111       .  S
C1827      H1838   1.108       .  S
C1827      H1839   1.111       .  S
C1829      H1840   1.110       .  S
C1829      H1841   1.108       .  S
C1829      H1842   1.110       .  S
C1843      C1844   1.396       .  A
C1843      C1848   1.406       .  A
C1843      H1853   1.084       .  S
C1844      C1849   1.486       .  S
C1844      C1845   1.414       .  A
C1845      C1846   1.408       .  A
C1845      C1850   1.507       .  S
C1846      C1847   1.405       .  A
C1846      H1851   1.084       .  S
C1847      C1848   1.423       .  A
C1848      C1852   1.505       .  S
C1849      C1854   1.413       .  A
C1849      C1858   1.400       .  A
C1850      H1866   1.110       .  S
C1850      H1867   1.110       .  S
C1850      H1868   1.110       .  S
C1852      H1863   1.111       .  S
C1852      H1864   1.110       .  S
C1852      H1865   1.107       .  S
C1854      C1855   1.406       .  A
C1854      C1859   1.506       .  S
C1855      C1856   1.402       .  A
C1855      H1860   1.084       .  S
C1856      C1857   1.417       .  A
C1857      C1858   1.404       .  A
C1857      C1861   1.506       .  S
C1858      H1862   1.084       .  S
C1859      H1869   1.111       .  S
C1859      H1870   1.110       .  S
C1859      H1871   1.110       .  S
C1861      H1872   1.110       .  S
C1861      H1873   1.110       .  S
C1861      H1874   1.111       .  S
C1875      C1876   1.401       .  A
C1875      C1880   1.404       .  A
C1875      H1885   1.084       .  S
C1876      C1881   1.491       .  S
C1876      C1877   1.415       .  A
C1877      C1878   1.407       .  A
C1877      C1882   1.507       .  S
C1878      C1879   1.404       .  A
C1878      H1883   1.084       .  S
C1879      C1880   1.416       .  A
C1880      C1884   1.505       .  S
C1881      C1886   1.409       .  A
C1881      C1890   1.405       .  A
C1882      H1898   1.109       .  S
C1882      H1899   1.110       .  S
C1882      H1900   1.111       .  S
C1884      H1895   1.110       .  S
C1884      H1896   1.111   1_455  S
C1884      H1897   1.111   1_455  S
C1886      C1887   1.407       .  A
C1886      C1891   1.506       .  S
C1887      C1888   1.407       .  A
C1887      H1892   1.084       .  S
C1888      C1889   1.415       .  A
C1889      C1890   1.406       .  A
C1889      C1893   1.506   1_455  S
C1890      H1894   1.084   1_455  S
C1891      H1901   1.111       .  S
C1891      H1902   1.109       .  S
C1891      H1903   1.111       .  S
C1893      H1904   1.107       .  S
C1893      H1905   1.108       .  S
C1893      H1906   1.110       .  S
C1907      C1908   1.400       .  A
C1907      C1912   1.400       .  A
C1907      H1917   1.084       .  S
C1908      C1913   1.483       .  S
C1908      C1909   1.413       .  A
C1909      C1910   1.407       .  A
C1909      C1914   1.506       .  S
C1910      C1911   1.403       .  A
C1910      H1915   1.084       .  S
C1911      C1912   1.415       .  A
C1912      C1916   1.507       .  S
C1913      C1918   1.413       .  A
C1913      C1922   1.396       .  A
C1914      H1930   1.110       .  S
C1914      H1931   1.108       .  S
C1914      H1932   1.111       .  S
C1916      H1927   1.110       .  S
C1916      H1928   1.110       .  S
C1916      H1929   1.110       .  S
C1918      C1919   1.404       .  A
C1918      C1923   1.504       .  S
C1919      C1920   1.404       .  A
C1919      H1924   1.084       .  S
C1920      C1921   1.426       .  A
C1921      C1922   1.405       .  A
C1921      C1925   1.510       .  S
C1922      H1926   1.084       .  S
C1923      H1933   1.111       .  S
C1923      H1934   1.107       .  S
C1923      H1935   1.107       .  S
C1925      H1936   1.111       .  S
C1925      H1937   1.110       .  S
C1925      H1938   1.109       .  S
C1939      C1940   1.400       .  A
C1939      C1944   1.398       .  A
C1939      H1949   1.084       .  S
C1940      C1945   1.492       .  S
C1940      C1941   1.421       .  A
C1941      C1942   1.410       .  A
C1941      C1946   1.507       .  S
C1942      C1943   1.400       .  A
C1942      H1947   1.084       .  S
C1943      C1944   1.416       .  A
C1944      C1948   1.510       .  S
C1945      C1950   1.416       .  A
C1945      C1954   1.406       .  A
C1946      H1962   1.108       .  S
C1946      H1963   1.110       .  S
C1946      H1964   1.111       .  S
C1948      H1959   1.111       .  S
C1948      H1960   1.110       .  S
C1948      H1961   1.109       .  S
C1950      C1951   1.403       .  A
C1950      C1955   1.510       .  S
C1951      C1952   1.405       .  A
C1951      H1956   1.085       .  S
C1952      C1953   1.412       .  A
C1953      C1954   1.406       .  A
C1953      C1957   1.504       .  S
C1954      H1958   1.084       .  S
C1955      H1965   1.111       .  S
C1955      H1966   1.110       .  S
C1955      H1967   1.107       .  S
C1957      H1968   1.110       .  S
C1957      H1969   1.110       .  S
C1957      H1970   1.111       .  S
C1971      C1972   1.404       .  A
C1971      C1976   1.404       .  A
C1971      H1981   1.084       .  S
C1972      C1977   1.485       .  S
C1972      C1973   1.410       .  A
C1973      C1974   1.404       .  A
C1973      C1978   1.506       .  S
C1974      C1975   1.406       .  A
C1974      H1979   1.084       .  S
C1975      C1976   1.412       .  A
C1976      C1980   1.507       .  S
C1977      C1982   1.416       .  A
C1977      C1986   1.401       .  A
C1978      H1994   1.110       .  S
C1978      H1995   1.110       .  S
C1978      H1996   1.111       .  S
C1980      H1991   1.110       .  S
C1980      H1992   1.111       .  S
C1980      H1993   1.110       .  S
C1982      C1983   1.404       .  A
C1982      C1987   1.508       .  S
C1983      C1984   1.401       .  A
C1983      H1988   1.084       .  S
C1984      C1985   1.417       .  A
C1985      C1986   1.406       .  A
C1985      C1989   1.508       .  S
C1986      H1990   1.084       .  S
C1987      H1997   1.110       .  S
C1987      H1998   1.109       .  S
C1987      H1999   1.110       .  S
C1989      H2000   1.108       .  S
C1989      H2001   1.110       .  S
C1989      H2002   1.111       .  S
C2003      C2004   1.401       .  A
C2003      C2008   1.406       .  A
C2003      H2013   1.084       .  S
C2004      C2009   1.499       .  S
C2004      C2005   1.420       .  A
C2005      C2006   1.411       .  A
C2005      C2010   1.507       .  S
C2006      C2007   1.402       .  A
C2006      H2011   1.084       .  S
C2007      C2008   1.421       .  A
C2008      C2012   1.508       .  S
C2009      C2014   1.415       .  A
C2009      C2018   1.405       .  A
C2010      H2026   1.109       .  S
C2010      H2027   1.110       .  S
C2010      H2028   1.111       .  S
C2012      H2023   1.111       .  S
C2012      H2024   1.111       .  S
C2012      H2025   1.109       .  S
C2014      C2015   1.410       .  A
C2014      C2019   1.506       .  S
C2015      C2016   1.408       .  A
C2015      H2020   1.084       .  S
C2016      C2017   1.414       .  A
C2017      C2018   1.407       .  A
C2017      C2021   1.504       .  S
C2018      H2022   1.084       .  S
C2019      H2029   1.111       .  S
C2019      H2030   1.109       .  S
C2019      H2031   1.110       .  S
C2021      H2032   1.110       .  S
C2021      H2033   1.109       .  S
C2021      H2034   1.110       .  S
C2035      C2036   1.403       .  A
C2035      C2040   1.410       .  A
C2035      H2045   1.084       .  S
C2036      C2041   1.481       .  S
C2036      C2037   1.403       .  A
C2037      C2038   1.401       .  A
C2037      C2042   1.508       .  S
C2038      C2039   1.415       .  A
C2038      H2043   1.083       .  S
C2039      C2040   1.422       .  A
C2040      C2044   1.507       .  S
C2041      C2046   1.410       .  A
C2041      C2050   1.401       .  A
C2042      H2058   1.110       .  S
C2042      H2059   1.109       .  S
C2042      H2060   1.111       .  S
C2044      H2055   1.111   1_556  S
C2044      H2056   1.110       .  S
C2044      H2057   1.109       .  S
C2046      C2047   1.405       .  A
C2046      C2051   1.506       .  S
C2047      C2048   1.405       .  A
C2047      H2052   1.084       .  S
C2048      C2049   1.415       .  A
C2049      C2050   1.402       .  A
C2049      C2053   1.507       .  S
C2050      H2054   1.085       .  S
C2051      H2061   1.111       .  S
C2051      H2062   1.110       .  S
C2051      H2063   1.109       .  S
C2053      H2064   1.110       .  S
C2053      H2065   1.108       .  S
C2053      H2066   1.110       .  S
C2067      C2068   1.399       .  A
C2067      C2072   1.407       .  A
C2067      H2077   1.084       .  S
C2068      C2073   1.482       .  S
C2068      C2069   1.414       .  A
C2069      C2070   1.401       .  A
C2069      C2074   1.502       .  S
C2070      C2071   1.400       .  A
C2070      H2075   1.085       .  S
C2071      C2072   1.420       .  A
C2072      C2076   1.507       .  S
C2073      C2078   1.409       .  A
C2073      C2082   1.402       .  A
C2074      H2090   1.108   1_556  S
C2074      H2091   1.110   1_556  S
C2074      H2092   1.110       .  S
C2076      H2087   1.111       .  S
C2076      H2088   1.107       .  S
C2076      H2089   1.110       .  S
C2078      C2079   1.405       .  A
C2078      C2083   1.505       .  S
C2079      C2080   1.407       .  A
C2079      H2084   1.084       .  S
C2080      C2081   1.413       .  A
C2081      C2082   1.402       .  A
C2081      C2085   1.506       .  S
C2082      H2086   1.085       .  S
C2083      H2093   1.111       .  S
C2083      H2094   1.110       .  S
C2083      H2095   1.111       .  S
C2085      H2096   1.110       .  S
C2085      H2097   1.108       .  S
C2085      H2098   1.110       .  S
C2099      C2100   1.406       .  A
C2099      C2104   1.415       .  A
C2099      H2109   1.081       .  S
C2100      C2105   1.493       .  S
C2100      C2101   1.403       .  A
C2101      C2102   1.403       .  A
C2101      C2106   1.508       .  S
C2102      C2103   1.420       .  A
C2102      H2107   1.081       .  S
C2103      C2104   1.420       .  A
C2104      C2108   1.504       .  S
C2105      C2110   1.410       .  A
C2105      C2114   1.404       .  A
C2106      H2122   1.110       .  S
C2106      H2123   1.110       .  S
C2106      H2124   1.111       .  S
C2108      H2119   1.110       .  S
C2108      H2120   1.110   1_455  S
C2108      H2121   1.110       .  S
C2110      C2111   1.408       .  A
C2110      C2115   1.505       .  S
C2111      C2112   1.407       .  A
C2111      H2116   1.084       .  S
C2112      C2113   1.415       .  A
C2113      C2114   1.407       .  A
C2113      C2117   1.506       .  S
C2114      H2118   1.084       .  S
C2115      H2125   1.111       .  S
C2115      H2126   1.110       .  S
C2115      H2127   1.110       .  S
C2117      H2128   1.110       .  S
C2117      H2129   1.109       .  S
C2117      H2130   1.110       .  S
