geometry optimzed in LAMMPS
_audit_creation_date              2020-12-01 
_audit_creation_method            'lammps2cif' 
_symmetry_space_group_name_H-M    'P1' 
_symmetry_Int_Tables_number       1 
_symmetry_cell_setting            triclinic 
loop_ 
_symmetry_equiv_pos_as_xyz 
  x,y,z 
_cell_length_a                    63.59960557 
_cell_length_b                    63.5542130700587 
_cell_length_c                    26.30278911140824 
_cell_angle_alpha                 90.60580867299635 
_cell_angle_beta                  89.62791308674035 
_cell_angle_gamma                 120.54423387995061 
loop_ 
_atom_site_label 
_atom_site_type_symbol 
_atom_site_fract_x 
_atom_site_fract_y 
_atom_site_fract_z 
_atom_site_charge 
O1          O  0.71295312  0.89476681  0.35525854    -0.54600
C2          C  0.68901338  0.91458509  0.49079744     0.78100
O3          O  0.74441763  0.89343392  0.99363662    -0.55700
C4          C  0.72912625  0.88884478  0.34951608     0.78000
C5          C  0.76385760  0.96440717  0.41311226     0.80400
Cd6        Cd  0.72863694  0.91466676  0.43843607     1.37500
O7          O  0.68763828  0.90914722  0.44386427    -0.54600
O8          O  0.74190140  0.95357222  0.39816668    -0.53400
C9          C  0.72671570  0.87142070  0.99184623     0.80400
O10         O  0.76974431  0.95262162  0.44282073    -0.55700
O11         O  0.70955165  0.92248115  0.51214833    -0.54200
O12         O  0.74550296  0.89610533  0.38318333    -0.54200
O13         O  0.70797027  0.87468272  0.47475260    -0.53400
O14         O  0.60892998  0.84307648  0.20552581    -0.54600
C15         C  0.63875332  0.88540037  0.07974360     0.78100
O16         O  0.56693170  0.81809464  0.06344046    -0.55700
C17         C  0.59043984  0.82223111  0.21409180     0.78000
C18         C  0.56603728  0.87350862  0.15446467     0.80400
Cd19       Cd  0.59338796  0.85007258  0.12663367     1.37500
O20         O  0.63783178  0.88053507  0.12658687    -0.54600
O21         O  0.56448885  0.86500431  0.10997375    -0.53400
C22         C  0.58254977  0.81161349  0.05512844     0.80400
O23         O  0.58010440  0.87134633  0.18485203    -0.55700
O24         O  0.61857365  0.87606873  0.05659496    -0.54200
O25         O  0.57282850  0.81451819  0.18310517    -0.54200
O26         O  0.60205542  0.82238155  0.08066000    -0.53400
O27         O  0.68294863  0.78262032  0.18754302    -0.54600
C28         C  0.73647303  0.83898579  0.10239332     0.78100
O29         O  0.74994803  0.83329296  0.26548297    -0.55700
C30         C  0.68111664  0.77651248  0.23393648     0.78000
C31         C  0.75044331  0.78103524  0.15922225     0.80400
Cd32       Cd  0.72782631  0.80878668  0.18900384     1.37500
O33         O  0.71615858  0.81927349  0.10786309    -0.54600
O34         O  0.72758021  0.77151635  0.16250988    -0.53400
C35         C  0.73869977  0.84509159  0.26533973     0.80400
O36         O  0.76329648  0.80315402  0.17321425    -0.55700
O37         O  0.75269578  0.84374696  0.13524924    -0.54200
O38         O  0.70087616  0.78386507  0.25806892    -0.54200
O39         O  0.72360484  0.84032144  0.22983504    -0.53400
O40         O  0.62979537  0.75804763  0.38188657    -0.54600
C41         C  0.57862766  0.77024497  0.46203461     0.78100
O42         O  0.56071455  0.74700464  0.31060206    -0.55700
C43         C  0.63103471  0.75334702  0.33533816     0.78000
C44         C  0.56101940  0.69317450  0.41173962     0.80400
Cd45       Cd  0.58547221  0.74379548  0.38025970     1.37500
O46         O  0.59886583  0.77120167  0.45476611    -0.54600
O47         O  0.57651284  0.71045990  0.43941244    -0.53400
C48         C  0.57586865  0.76962991  0.30418867     0.80400
O49         O  0.55639758  0.69910112  0.36913773    -0.55700
O50         O  0.56118732  0.75612166  0.43303460    -0.54200
O51         O  0.61110576  0.74261076  0.31114699    -0.54200
O52         O  0.59426570  0.77940869  0.33313720    -0.53400
O53         O  0.77309237  0.14831012  0.03795682    -0.54600
C54         C  0.75253076  0.10761527  0.17893580     0.78100
O55         O  0.75967681  0.17187290  0.18434620    -0.55700
C56         C  0.77555627  0.16912519  0.02966633     0.78000
C57         C  0.70006023  0.11562252  0.07474206     0.80400
Cd58       Cd  0.74877368  0.14117214  0.11474782     1.37500
O59         O  0.76007880  0.11058150  0.13314747    -0.54600
O60         O  0.71485205  0.10797896  0.06954499    -0.53400
C61         C  0.78198113  0.17726251  0.18330223     0.80400
O62         O  0.70739079  0.13527456  0.10031169    -0.55700
O63         O  0.74077909  0.11793355  0.19258362    -0.54200
O64         O  0.76431448  0.17609042  0.05893286    -0.54200
O65         O  0.78807785  0.16697634  0.14975897    -0.53400
O66         O  0.82456501  0.10270335  0.37934713    -0.54600
C67         C  0.78611423  0.07970549  0.24161791     0.78100
O68         O  0.84788934  0.07745846  0.24182571    -0.55700
C69         C  0.84389355  0.10365808  0.39479616     0.78000
C70         C  0.79016146  0.02687156  0.34909711     0.80400
Cd71       Cd  0.81878952  0.07525842  0.30806327     1.37500
O72         O  0.78938235  0.08803972  0.28687143    -0.54600
O73         O  0.78239167  0.04151196  0.34473513    -0.53400
C74         C  0.85682710  0.10027352  0.23511337     0.80400
O75         O  0.81170147  0.03415725  0.33331158    -0.55700
O76         O  0.79662618  0.06805348  0.22891010    -0.54200
O77         O  0.85089341  0.09086770  0.37112554    -0.54200
O78         O  0.84908476  0.11096435  0.26387289    -0.53400
O79         O  0.91032087  0.20531518  0.03272738    -0.54600
C80         C  0.89614252  0.15005939  0.13928518     0.78100
O81         O  0.91130766  0.14106412  0.98268900    -0.55700
C82         C  0.91726060  0.20902015  0.98664420     0.78000
C83         C  0.97140421  0.19213605  0.07862921     0.80400
Cd84       Cd  0.92125326  0.17337799  0.04735121     1.37500
O85         O  0.89977192  0.17094695  0.12726958    -0.54600
O86         O  0.95943153  0.20243177  0.09045620    -0.53400
C87         C  0.89446825  0.14212236  0.48932184     0.80400
O88         O  0.96067112  0.17348728  0.04983955    -0.55700
O89         O  0.90496086  0.14059288  0.10994735    -0.54200
O90         O  0.92284372  0.20551873  0.50300151    -0.54200
O91         O  0.88152382  0.14435712  0.01372758    -0.53400
O92         O  0.83499008  0.21854785  0.29902646    -0.54600
C93         C  0.88646713  0.23658806  0.41913197     0.78100
O94         O  0.86587361  0.29076585  0.37120803    -0.55700
C95         C  0.81537599  0.21923533  0.29634935     0.78000
C96         C  0.81650490  0.22243111  0.45126183     0.80400
Cd97       Cd  0.85117641  0.24608726  0.37272542     1.37500
O98         O  0.87908223  0.22956988  0.37401360    -0.54600
O99         O  0.82241348  0.21127751  0.41941811    -0.53400
C100        C  0.87472684  0.29362832  0.32663607     0.80400
O101        O  0.82647798  0.24547915  0.44652109    -0.55700
O102        O  0.87957723  0.25002650  0.44038603    -0.54200
O103        O  0.81259765  0.23254924  0.32856072    -0.54200
O104        O  0.87349209  0.27511064  0.30544590    -0.53400
O105        O  0.42309339  0.97557709  0.03692177    -0.54600
C106        C  0.43692839  0.92885170  0.43964007     0.78100
O107        O  0.41215979  0.90788975  0.10349588    -0.55700
C108        C  0.41768239  0.97553650  0.08340178     0.78000
C109        C  0.36172233  0.89859679  0.50599099     0.80400
Cd110      Cd  0.40924810  0.93154587  0.03214078     1.37500
O111        O  0.43359503  0.94657134  0.44905831    -0.54600
O112        O  0.37666535  0.91436217  0.47531987    -0.53400
C113        C  0.43518065  0.92151275  0.10732913     0.80400
O114        O  0.36993229  0.89206549  0.02232105    -0.55700
O115        O  0.42799417  0.91130132  0.47079613    -0.47000
O116        O  0.40619239  0.95488478  0.10467655    -0.54200
O117        O  0.44552452  0.93909867  0.07664788    -0.53400
O118        O  0.44781858  0.02253360  0.23757615    -0.54600
C119        C  0.50641444  0.06629749  0.33083041     0.78100
O120        O  0.50735324  0.08959211  0.17025744    -0.55700
C121        C  0.44286578  0.02264808  0.19100731     0.78000
C122        C  0.45880608  0.09644674  0.26985804     0.80400
Cd123      Cd  0.47982177  0.06646581  0.24213201     1.37500
O124        O  0.48549028  0.04838076  0.32007195    -0.54600
O125        O  0.44806016  0.07377459  0.27865554    -0.53400
C126        C  0.51668158  0.07608316  0.16691245     0.80400
O127        O  0.47922312  0.10546480  0.24745188    -0.55700
O128        O  0.51438539  0.08478973  0.30259465    -0.54200
O129        O  0.45350227  0.04321169  0.16932466    -0.54200
O130        O  0.50928326  0.05889355  0.19851462    -0.53400
O131        O  0.50959834  0.94753691  0.20104375    -0.54600
C132        C  0.55102278  0.96665966  0.33867165     0.78100
O133        O  0.48211982  0.90061918  0.33734301    -0.55700
C134        C  0.48790028  0.93054761  0.19188096     0.78000
C135        C  0.53487676  0.89955639  0.23765657     0.80400
Cd136      Cd  0.51440925  0.92789324  0.27634219     1.37500
O137        O  0.54607571  0.97134774  0.29501640    -0.54600
O138        O  0.53738309  0.91801671  0.21439961    -0.53400
C139        C  0.47598446  0.91638096  0.34739276     0.80400
O140        O  0.52263015  0.89389951  0.27855000    -0.55700
O141        O  0.54096552  0.94440207  0.35042057    -0.54200
O142        O  0.47899888  0.91206085  0.22048176    -0.54200
O143        O  0.48707404  0.93633698  0.32361196    -0.53400
O144        O  0.56364288  0.04900410  0.06954483    -0.54600
C145        C  0.58336044  0.02805090  0.40736831     0.78100
O146        O  0.58293934  0.09120617  0.41912884    -0.55700
C147        C  0.55900041  0.06584438  0.07877303     0.78000
C148        C  0.63690964  0.09646719  0.01970283     0.80400
Cd149      Cd  0.58789368  0.06412772  0.47989657     1.37500
O150        O  0.57593148  0.02220438  0.45289471    -0.54600
O151        O  0.62525060  0.07339897  0.02255476    -0.53400
C152        C  0.55995071  0.07700033  0.41539248     0.80400
O153        O  0.62773589  0.10105029  0.50530143    -0.55700
O154        O  0.59488159  0.05062518  0.39721042    -0.54200
O155        O  0.56790054  0.08360600  0.04839237    -0.54200
O156        O  0.55050358  0.05810883  0.44270603    -0.53400
O157        O  0.78160092  0.68994804  0.03567819    -0.54600
C158        C  0.84133471  0.73776421  0.13207388     0.78100
O159        O  0.85264295  0.75746799  0.48341572    -0.55700
C160        C  0.77625245  0.69213600  0.99033056     0.78000
C161        C  0.79051110  0.76216352  0.08584983     0.80400
Cd162      Cd  0.81145491  0.73430833  0.04770016     1.37500
O163        O  0.82017590  0.71921592  0.12602423    -0.54600
O164        O  0.78290944  0.74040478  0.09946963    -0.53400
C165        C  0.85683759  0.73992886  0.47898098     0.80400
O166        O  0.80708103  0.77083040  0.05214615    -0.55700
O167        O  0.84815486  0.75478450  0.10021546    -0.54200
O168        O  0.79526594  0.72085850  0.46647994    -0.54200
O169        O  0.83935967  0.72599827  0.00368166    -0.53400
O170        O  0.75803873  0.64083396  0.36926639    -0.54600
C171        C  0.77611768  0.59759546  0.26925035     0.78100
O172        O  0.76034148  0.57702896  0.41802966    -0.55700
C173        C  0.74952220  0.63661817  0.41430211     0.78000
C174        C  0.69984081  0.56848085  0.32022598     0.80400
Cd175      Cd  0.74900556  0.59838732  0.35486895     1.37500
O176        O  0.77298694  0.61556112  0.27758913    -0.54600
O177        O  0.71528968  0.58749227  0.29690791    -0.53400
C178        C  0.78166385  0.59560212  0.42361815     0.80400
O179        O  0.70704683  0.56302964  0.36024472    -0.55700
O180        O  0.76580320  0.57967087  0.29930633    -0.54200
O181        O  0.73848432  0.61460735  0.42850239    -0.54200
O182        O  0.78717937  0.61415402  0.39707194    -0.53400
O183        O  0.90196115  0.73495166  0.36330648    -0.54600
C184        C  0.91918889  0.70550704  0.23036271     0.78100
O185        O  0.92023830  0.77005840  0.21531051    -0.55700
C186        C  0.90232267  0.75497278  0.37047211     0.78000
C187        C  0.97626580  0.77426721  0.32257930     0.80400
Cd188      Cd  0.92667987  0.74819741  0.28586002     1.37500
O189        O  0.91220706  0.70366618  0.27636518    -0.54600
O190        O  0.95971039  0.75483658  0.34282620    -0.53400
C191        C  0.89724827  0.75532005  0.21484706     0.80400
O192        O  0.97030735  0.78163838  0.28350985    -0.55700
O193        O  0.93142640  0.72688746  0.21283053    -0.54200
O194        O  0.91481251  0.77209330  0.33969305    -0.54200
O195        O  0.88864261  0.73875498  0.24808941    -0.53400
O196        O  0.88474956  0.64215326  0.13047992    -0.54600
C197        C  0.83001686  0.59566174  0.02546322     0.78100
O198        O  0.86317809  0.56238519  0.09645632    -0.55700
C199        C  0.88727018  0.63987238  0.17772936     0.78000
C200        C  0.81771954  0.58528271  0.18441195     0.80400
Cd201      Cd  0.85682388  0.59766376  0.11501570     1.37500
O202        O  0.85051478  0.61447089  0.03567260    -0.54600
O203        O  0.82564533  0.60281260  0.15356945    -0.53400
C204        C  0.88579810  0.57567748  0.08697095     0.80400
O205        O  0.82734487  0.57194265  0.18233988    -0.55700
O206        O  0.82304229  0.57749664  0.05428658    -0.54200
O207        O  0.87727475  0.61828584  0.19448564    -0.54200
O208        O  0.89478340  0.59845199  0.09194787    -0.53400
O209        O  0.44001101  0.48136901  0.19544755    -0.54600
C210        C  0.41954223  0.44079390  0.33510526     0.78100
O211        O  0.42422602  0.50594450  0.33951090    -0.55700
C212        C  0.44107878  0.50133179  0.18445685     0.78000
C213        C  0.36548815  0.45080056  0.23080008     0.80400
Cd214      Cd  0.41457172  0.47445538  0.27123890     1.37500
O215        O  0.42581421  0.44313222  0.28852915    -0.54600
O216        O  0.37920905  0.44183782  0.22659268    -0.53400
C217        C  0.44706028  0.51361861  0.33675788     0.80400
O218        O  0.37378066  0.47051726  0.25644058    -0.55700
O219        O  0.40866796  0.45182137  0.35001014    -0.54200
O220        O  0.42869250  0.50765827  0.21164734    -0.54200
O221        O  0.45388705  0.50387758  0.30347550    -0.53400
O222        O  0.48544385  0.43291388  0.05417490    -0.54600
C223        C  0.45324219  0.41158596  0.39371870     0.78100
O224        O  0.51931236  0.41549267  0.38412786    -0.55700
C225        C  0.50666946  0.43619658  0.06029789     0.78000
C226        C  0.45930839  0.36132495  0.99391917     0.80400
Cd227      Cd  0.49029944  0.40991413  0.45398990     1.37500
O228        O  0.45847262  0.42086628  0.43810123    -0.54600
O229        O  0.44991030  0.37346626  0.01049727    -0.53400
C230        C  0.52759969  0.43835506  0.38118702     0.80400
O231        O  0.49097159  0.37133756  0.46805366    -0.55700
O232        O  0.46331593  0.39971464  0.37953979    -0.54200
O233        O  0.51417355  0.42693957  0.02722451    -0.54200
O234        O  0.51926285  0.44747704  0.41263938    -0.53400
O235        O  0.55201875  0.57856430  0.04574165    -0.54600
C236        C  0.47956304  0.55776922  0.44793047     0.78100
O237        O  0.48540828  0.57863005  0.09521441    -0.55700
C238        C  0.55549110  0.58514649  0.09217257     0.78000
C239        C  0.53739113  0.63559951  0.49363678     0.80400
Cd240      Cd  0.51880498  0.58780484  0.03352858     1.37500
O241        O  0.50024180  0.55919628  0.44911092    -0.54600
O242        O  0.53442865  0.61862887  0.46362896    -0.53400
C243        C  0.48005723  0.55657073  0.10053432     0.80400
O244        O  0.52753291  0.63066976  0.04040094    -0.55700
O245        O  0.47555911  0.56957382  0.48182230    -0.54200
O246        O  0.54410438  0.59524196  0.10909925    -0.54200
O247        O  0.49210258  0.54955381  0.07429337    -0.53400
O248        O  0.58222913  0.55091793  0.19254293    -0.54600
C249        C  0.56668766  0.49184879  0.29252676     0.78100
O250        O  0.58500997  0.48495077  0.14446339    -0.55700
C251        C  0.58789311  0.55373369  0.14565367     0.78000
C252        C  0.64310985  0.54077074  0.23610076     0.80400
Cd253      Cd  0.59291860  0.51854915  0.20458260     1.37500
O254        O  0.56894281  0.51243245  0.28248992    -0.54600
O255        O  0.62662128  0.53990376  0.26460611    -0.53400
C256        C  0.56255745  0.47826589  0.13988561     0.80400
O257        O  0.63659913  0.53124047  0.19221761    -0.55700
O258        O  0.57740838  0.48433184  0.26316878    -0.54200
O259        O  0.59783869  0.54228006  0.12836732    -0.54200
O260        O  0.55486343  0.48991916  0.16558671    -0.53400
O261        O  0.15151105  0.76752936  0.22086340    -0.54600
C262        C  0.11297499  0.74892577  0.08054052     0.78100
O263        O  0.17616825  0.74868272  0.07605562    -0.55700
C264        C  0.17164924  0.76939373  0.23333159     0.78000
C265        C  0.11994720  0.69306414  0.17909604     0.80400
Cd266      Cd  0.14614620  0.74297264  0.14378624     1.37500
O267        O  0.11650726  0.75629787  0.12658235    -0.54600
O268        O  0.11034127  0.70618067  0.17576964    -0.53400
C269        C  0.18376207  0.77141376  0.07220444     0.80400
O270        O  0.14183766  0.70240716  0.16365407    -0.55700
O271        O  0.12300790  0.73707252  0.06577144    -0.54200
O272        O  0.17930486  0.75830160  0.20558483    -0.54200
O273        O  0.17482947  0.78031413  0.10272624    -0.53400
O274        O  0.10525185  0.82219674  0.38970451    -0.54600
C275        C  0.08167366  0.78069529  0.51898957     0.78100
O276        O  0.07959078  0.84840187  0.52079110    -0.55700
C277        C  0.11049308  0.84383414  0.37972048     0.78000
C278        C  0.02990669  0.79764247  0.41569632     0.80400
Cd279      Cd  0.07796216  0.81705176  0.46032199     1.37500
O280        O  0.09005568  0.78560697  0.47403487    -0.54600
O281        O  0.04805600  0.80084656  0.38970156    -0.53400
C282        C  0.10155030  0.85208233  0.04056017     0.80400
O283        O  0.03380783  0.80346365  0.46230178    -0.55700
O284        O  0.06949508  0.79028803  0.53372076    -0.54200
O285        O  0.10035440  0.85287045  0.40654059    -0.54200
O286        O  0.11176304  0.84555029  0.51091044    -0.53400
O287        O  0.22679708  0.83840250  0.47654051    -0.54600
C288        C  0.24661049  0.88222735  0.35323532     0.78100
O289        O  0.28607060  0.86486713  0.46031554    -0.55700
C290        C  0.22418815  0.81786485  0.48786247     0.78000
C291        C  0.22323520  0.80676422  0.32784152     0.80400
Cd292      Cd  0.25152738  0.84436076  0.40083929     1.37500
O293        O  0.24151111  0.87723520  0.39980404    -0.54600
O294        O  0.21469313  0.81737680  0.35441625    -0.53400
C295        C  0.30217621  0.86617454  0.43001633     0.80400
O296        O  0.24525084  0.81275115  0.33620852    -0.55700
O297        O  0.25581436  0.87125077  0.33023547    -0.54200
O298        O  0.23489969  0.80986176  0.45979097    -0.54200
O299        O  0.29494802  0.85691737  0.38619145    -0.53400
O300        O  0.21525795  0.89996065  0.20643565    -0.54600
C301        C  0.15672885  0.89094226  0.12621764     0.78100
O302        O  0.16062297  0.91647275  0.27835694    -0.55700
C303        C  0.22413212  0.90741309  0.25036917     0.78000
C304        C  0.21249869  0.96768151  0.17610690     0.80400
Cd305      Cd  0.18825298  0.91757001  0.20940549     1.37500
O306        O  0.17735715  0.89276486  0.13222920    -0.54600
O307        O  0.20569744  0.96215934  0.22182483    -0.53400
C308        C  0.15247268  0.89404836  0.28750726     0.80400
O309        O  0.20812700  0.95021392  0.14628758    -0.55700
O310        O  0.15067850  0.90196589  0.15824337    -0.54200
O311        O  0.21844206  0.92153107  0.27272316    -0.54200
O312        O  0.16060639  0.88326507  0.26028532    -0.53400
O313        O  0.12073267  0.35214993  0.35934304    -0.54600
C314        C  0.17740000  0.39854511  0.46427274     0.78100
O315        O  0.17691141  0.42424013  0.31516032    -0.55700
C316        C  0.11382055  0.35616449  0.31716985     0.78000
C317        C  0.12338888  0.41705121  0.43146256     0.80400
Cd318      Cd  0.14822517  0.39593161  0.38011923     1.37500
O319        O  0.15871505  0.37847744  0.45105322    -0.54600
O320        O  0.12235775  0.39771467  0.44637661    -0.53400
C321        C  0.18628420  0.41097613  0.30678900     0.80400
O322        O  0.13520635  0.42648915  0.39074234    -0.55700
O323        O  0.18253304  0.41727891  0.43841927    -0.54200
O324        O  0.12065633  0.37815788  0.30733391    -0.54200
O325        O  0.17875524  0.39213288  0.33381140    -0.53400
O326        O  0.09413782  0.30046512  0.20295898    -0.54600
C327        C  0.11225332  0.26342023  0.09001204     0.78100
O328        O  0.09043569  0.23363649  0.24249976    -0.55700
C329        C  0.08690907  0.29478696  0.24867331     0.78000
C330        C  0.03398133  0.23374394  0.14168388     0.80400
Cd331      Cd  0.08379860  0.25839448  0.17862239     1.37500
O332        O  0.10998194  0.28101815  0.10647194    -0.54600
O333        O  0.04741262  0.25669330  0.14491763    -0.53400
C334        C  0.11290584  0.24977395  0.24799252     0.80400
O335        O  0.04319085  0.22121339  0.15666396    -0.55700
O336        O  0.10043450  0.24329360  0.11305266    -0.54200
O337        O  0.07653931  0.27237310  0.25986352    -0.54200
O338        O  0.12135323  0.26826794  0.21963396    -0.53400
O339        O  0.23137170  0.38697881  0.19591153    -0.54600
C340        C  0.25276927  0.37312957  0.05141009     0.78100
O341        O  0.25096501  0.43570427  0.06118946    -0.55700
C342        C  0.22779489  0.40395540  0.21093265     0.78000
C343        C  0.30573562  0.43662510  0.16433050     0.80400
Cd344      Cd  0.25669713  0.40972408  0.12279235     1.37500
O345        O  0.24634398  0.36769021  0.09751858    -0.54600
O346        O  0.29262625  0.41358391  0.16626681    -0.53400
C347        C  0.22827667  0.42034218  0.05594436     0.80400
O348        O  0.29677587  0.44758067  0.14074175    -0.55700
O349        O  0.26296627  0.39550450  0.04009775    -0.54200
O350        O  0.23822848  0.42367772  0.18623191    -0.54200
O351        O  0.21921759  0.40157540  0.08365105    -0.53400
O352        O  0.18347620  0.28730805  0.35817966    -0.54600
C353        C  0.22222087  0.30766367  0.50055247     0.78100
O354        O  0.15904926  0.24262294  0.49884947    -0.55700
C355        C  0.16471438  0.26774659  0.34307806     0.78000
C356        C  0.21596687  0.24476723  0.40004563     0.80400
Cd357      Cd  0.18966370  0.26839402  0.43394889     1.37500
O358        O  0.22009715  0.31183093  0.45417493    -0.54600
O359        O  0.22558821  0.26772795  0.40206940    -0.53400
C360        C  0.15272271  0.25510393  0.99320132     0.80400
O361        O  0.19415133  0.23218957  0.41594831    -0.55700
O362        O  0.21097915  0.28553408  0.51417408    -0.54200
O363        O  0.15840478  0.24871858  0.36868635    -0.54200
O364        O  0.15923770  0.27504873  0.47386627    -0.53400
O365        O  0.27953196  0.17412686  0.37928883    -0.54600
C366        C  0.30575782  0.21517416  0.24604689     0.78100
O367        O  0.23952743  0.15170177  0.23090545    -0.55700
C368        C  0.26080311  0.15386430  0.39052785     0.78000
C369        C  0.23424184  0.20198544  0.33469686     0.80400
Cd370      Cd  0.26251209  0.18032021  0.30136368     1.37500
O371        O  0.30649000  0.21149320  0.29312838    -0.54600
O372        O  0.22515043  0.18360862  0.30502889    -0.53400
C373        C  0.25265508  0.14188179  0.23175326     0.80400
O374        O  0.25644752  0.21087451  0.34650881    -0.55700
O375        O  0.28483925  0.20447952  0.22561238    -0.54200
O376        O  0.24258294  0.14609669  0.36129815    -0.54200
O377        O  0.26894514  0.14923473  0.26566906    -0.53400
O378        O  0.38465709  0.22209005  0.00937431    -0.54600
C379        C  0.35195501  0.23755083  0.13655421     0.78100
O380        O  0.41875070  0.24552577  0.16002605    -0.55700
C381        C  0.40578165  0.22494216  0.00262621     0.78000
C382        C  0.41782946  0.29786362  0.05021182     0.80400
Cd383      Cd  0.39654056  0.24848358  0.08535529     1.37500
O384        O  0.35187651  0.23150170  0.09029060    -0.54600
O385        O  0.39558573  0.28201601  0.04360656    -0.53400
C386        C  0.40615895  0.22225644  0.15954789     0.80400
O387        O  0.43065097  0.29129286  0.07470676    -0.55700
O388        O  0.37266284  0.25010507  0.15757654    -0.54200
O389        O  0.42259389  0.23985611  0.03179272    -0.54200
O390        O  0.39054937  0.21221051  0.12450135    -0.53400
O391        O  0.31325982  0.08907554  0.05701621    -0.54600
C392        C  0.26713361  0.10161388  0.14793245     0.78100
O393        O  0.23278824  0.08029541  0.49148269    -0.55700
C394        C  0.31250385  0.08290589  0.01074761     0.78000
C395        C  0.24129259  0.02478732  0.09259978     0.80400
Cd396      Cd  0.26914056  0.07525818  0.06168760     1.37500
O397        O  0.28567613  0.09955453  0.13947141    -0.54600
O398        O  0.23802278  0.03125182  0.04931032    -0.53400
C399        C  0.24635176  0.10327776  0.48626266     0.80400
O400        O  0.25729597  0.04141392  0.12066174    -0.55700
O401        O  0.24925431  0.09060284  0.11777047    -0.54200
O402        O  0.27928368  0.07564139  0.48451847    -0.54200
O403        O  0.27965274  0.11186462  0.01569824    -0.53400
O404        O  0.34303626  0.11147536  0.34257312    -0.54600
C405        C  0.39114196  0.16812909  0.24467242     0.78100
O406        O  0.40870308  0.17270258  0.40226274    -0.55700
C407        C  0.34416804  0.10769895  0.38957009     0.78000
C408        C  0.41283725  0.11576117  0.31191182     0.80400
Cd409      Cd  0.38708568  0.14148512  0.33460685     1.37500
O410        O  0.37243003  0.14733206  0.25266421    -0.54600
O411        O  0.39014243  0.10649889  0.30537311    -0.53400
C412        C  0.39246407  0.17882069  0.40332499     0.80400
O413        O  0.42427836  0.13728061  0.33033033    -0.55700
O414        O  0.40838103  0.17566243  0.27640394    -0.54200
O415        O  0.36526201  0.11775541  0.40933038    -0.54200
O416        O  0.37493338  0.16814552  0.37249925    -0.53400
O417        O  0.95388329  0.43563943  0.31851426    -0.54600
C418        C  0.97234291  0.41259168  0.18110382     0.78100
O419        O  0.90087285  0.36504835  0.25326420    -0.55700
C420        C  0.93559207  0.43773540  0.33007621     0.78000
C421        C  0.92344980  0.43565508  0.17514118     0.80400
Cd422      Cd  0.93407468  0.40863843  0.24598141     1.37500
O423        O  0.97712555  0.42152876  0.22584582    -0.54600
O424        O  0.94213938  0.44513393  0.20332644    -0.53400
C425        C  0.90870963  0.36178100  0.29505936     0.80400
O426        O  0.90805825  0.41305382  0.18151545    -0.55700
O427        O  0.95004137  0.39933170  0.16967167    -0.54200
O428        O  0.91655452  0.42603123  0.30308485    -0.54200
O429        O  0.92817832  0.37959197  0.31239519    -0.53400
O430        O  0.02741848  0.44929818  0.06753685    -0.54600
C431        C  0.06361270  0.50052440  0.44391182     0.78100
O432        O  0.09599332  0.51175045  0.10450476    -0.55700
C433        C  0.03342107  0.44666384  0.11206308     0.78000
C434        C  0.08910240  0.44973588  0.47018529     0.80400
Cd435      Cd  0.06947908  0.47972504  0.04169387     1.37500
O436        O  0.04467638  0.48085391  0.45755924    -0.54600
O437        O  0.07121062  0.45062089  0.45219452    -0.53400
C438        C  0.08062807  0.51876081  0.11137018     0.80400
O439        O  0.10537734  0.47564457  0.01637569    -0.55700
O440        O  0.08347443  0.50639526  0.46629697    -0.54200
O441        O  0.05602650  0.45768987  0.12210962    -0.54200
O442        O  0.06149607  0.50855678  0.08448848    -0.53400
O443        O  0.95633816  0.50892428  0.07449708    -0.54600
C444        C  0.97260951  0.55342585  0.42488897     0.78100
O445        O  0.90725446  0.48392423  0.42875474    -0.55700
C446        C  0.93814901  0.48798628  0.08372309     0.78000
C447        C  0.90909833  0.53581257  0.02609074     0.80400
Cd448      Cd  0.93483308  0.51721257  0.48854373     1.37500
O449        O  0.97757284  0.54897843  0.46877024    -0.54600
O450        O  0.90157349  0.51791204  0.99549127    -0.53400
C451        C  0.92309970  0.47777798  0.41972929     0.80400
O452        O  0.90152125  0.52678047  0.49461765    -0.55700
O453        O  0.95026216  0.54317127  0.41326265    -0.54200
O454        O  0.92025930  0.48010306  0.05354282    -0.54200
O455        O  0.94311886  0.48936284  0.44335850    -0.53400
O456        O  0.04940448  0.55879266  0.21968363    -0.54600
C457        C  0.03438975  0.58487732  0.35941391     0.78100
O458        O  0.09507165  0.57719508  0.35404989    -0.55700
C459        C  0.06768792  0.55725328  0.20523622     0.78000
C460        C  0.10044540  0.63397892  0.25266953     0.80400
Cd461      Cd  0.07077748  0.58554522  0.29302016     1.37500
O462        O  0.02929443  0.57782599  0.31339463    -0.54600
O463        O  0.07814279  0.62034663  0.24116282    -0.53400
C464        C  0.07844218  0.55497003  0.35959754     0.80400
O465        O  0.10905573  0.62571794  0.28512425    -0.55700
O466        O  0.05657182  0.59472470  0.37227970    -0.54200
O467        O  0.08721858  0.56935684  0.23036063    -0.54200
O468        O  0.05915091  0.54738733  0.33381039    -0.53400
C469        C  0.99162372  0.56778906  0.38673568    -0.13200
C470        C  0.01547177  0.57969183  0.39819073    -0.28400
H471        H  0.98597976  0.56552994  0.34719837     0.15800
H472        H  0.02106502  0.58225173  0.43779102     0.16400
C473        C  0.08107093  0.53870812  0.39513439    -0.13200
C474        C  0.06229556  0.51609220  0.40464473    -0.28400
H475        H  0.09819879  0.54580011  0.41550646     0.15800
H476        H  0.04498089  0.50929303  0.38515997     0.16400
C477        C  0.08417818  0.53725049  0.15009073    -0.13200
C478        C  0.06601826  0.54154680  0.16205053    -0.28400
H479        H  0.10117756  0.54616010  0.17131982     0.15800
H480        H  0.04880741  0.53210174  0.14160181     0.16400
C481        C  0.93695289  0.45371649  0.37221749    -0.13200
C482        C  0.91910928  0.45867235  0.38232051    -0.28400
H483        H  0.95391640  0.46287519  0.39357893     0.15800
H484        H  0.90218886  0.44979354  0.36081988     0.16400
C485        C  0.92051838  0.45031708  0.13562088    -0.13200
C486        C  0.93841613  0.47351088  0.12684792    -0.28400
H487        H  0.90440250  0.44162667  0.11161870     0.15800
H488        H  0.95465717  0.48189559  0.15053996     0.16400
C489        C  0.99134356  0.41903863  0.14188442    -0.13200
C490        C  0.01520477  0.43314879  0.15215124    -0.28400
H491        H  0.98536852  0.41471395  0.10259982     0.15800
H492        H  0.02129736  0.43704007  0.19141158     0.16400
C493        C  0.32262118  0.09466248  0.47160435    -0.13200
C494        C  0.32182322  0.09369204  0.42041882    -0.28400
H495        H  0.35241408  0.10154987  0.00011392     0.15800
H496        H  0.30433316  0.08527258  0.40101470     0.16400
C497        C  0.39221192  0.18309031  0.20143880    -0.13200
C498        C  0.40856729  0.20723251  0.19878746    -0.28400
H499        H  0.37772090  0.17441655  0.17340879     0.15800
H500        H  0.42251686  0.21623137  0.22779368     0.16400
C501        C  0.41173664  0.21091675  0.46918673    -0.13200
C502        C  0.39269144  0.19675801  0.43933840    -0.28400
H503        H  0.42850783  0.21228189  0.96481399     0.15800
H504        H  0.37613000  0.19768311  0.44243818     0.16400
C505        C  0.24994672  0.12344050  0.19397919    -0.13200
C506        C  0.26692470  0.11682568  0.19005990    -0.28400
H507        H  0.23507464  0.11672402  0.16678804     0.15800
H508        H  0.28227135  0.12434415  0.21619462     0.16400
C509        C  0.24317937  0.11686997  0.44467255    -0.13200
C510        C  0.26080174  0.14009556  0.43514392    -0.28400
H511        H  0.22748140  0.10738875  0.41969903     0.15800
H512        H  0.27682644  0.14905967  0.45939536     0.16400
C513        C  0.32844716  0.22994967  0.21639569    -0.13200
C514        C  0.32888506  0.22896609  0.16515507    -0.28400
H515        H  0.34552951  0.23917632  0.23733077     0.15800
H516        H  0.31186200  0.21884225  0.14425218     0.16400
C517        C  0.22999647  0.23377299  0.38011958    -0.13200
C518        C  0.21953617  0.21220773  0.35524220    -0.28400
H519        H  0.24975715  0.24458739  0.38309943     0.15800
H520        H  0.19991334  0.20204561  0.34934127     0.16400
C521        C  0.24702155  0.35446652  0.01133653    -0.13200
C522        C  0.23902454  0.33099631  0.02207340    -0.28400
H523        H  0.24709779  0.35977723  0.97218427     0.15800
H524        H  0.23955381  0.32582929  0.06107258     0.16400
C525        C  0.13381600  0.24953925  0.03213954    -0.13200
C526        C  0.12849297  0.26669820  0.04692283    -0.28400
H527        H  0.12533533  0.23192460  0.05082593     0.15800
H528        H  0.13750372  0.28446386  0.02879256     0.16400
C529        C  0.15047835  0.26742329  0.29881430    -0.13200
C530        C  0.12846205  0.24795749  0.28702977    -0.28400
H531        H  0.15747097  0.28431509  0.27776790     0.15800
H532        H  0.12100096  0.23130250  0.30905779     0.16400
C533        C  0.10110617  0.43915814  0.43985519    -0.13200
C534        C  0.11179345  0.42805757  0.46161074    -0.28400
H535        H  0.10004839  0.43941276  0.39866942     0.15800
H536        H  0.11085457  0.42578446  0.50259846     0.16400
C537        C  0.21322163  0.42336019  0.01764808    -0.13200
C538        C  0.19044357  0.40502663  0.00684636    -0.28400
H539        H  0.22161751  0.43993553  0.99521833     0.15800
H540        H  0.18227744  0.38827436  0.02870469     0.16400
C541        C  0.20457270  0.41656271  0.26654063    -0.13200
C542        C  0.21177029  0.40051416  0.25445002    -0.28400
H543        H  0.21109065  0.43320541  0.24484219     0.15800
H544        H  0.20463073  0.38357569  0.27538576     0.16400
C545        C  0.10048426  0.33676186  0.27874620    -0.13200
C546        C  0.09209599  0.31318434  0.28887292    -0.28400
H547        H  0.10032733  0.34231396  0.23989565     0.15800
H548        H  0.09159274  0.30758568  0.32795676     0.16400
C549        C  0.22738107  0.99913310  0.10933815    -0.13200
C550        C  0.22527702  0.99325343  0.15889330    -0.28400
H551        H  0.21849625  0.98490298  0.08061029     0.15800
H552        H  0.23296519  0.00758705  0.18768562     0.16400
C553        C  0.23863077  0.89835180  0.27558089    -0.13200
C554        C  0.24041522  0.89867608  0.32662990    -0.28400
H555        H  0.24422663  0.88765583  0.25283369     0.15800
H556        H  0.23348591  0.90818823  0.34949498     0.16400
C557        C  0.11723591  0.87013230  0.07950924    -0.13200
C558        C  0.14073008  0.87610501  0.08419078    -0.28400
H559        H  0.10491661  0.88179012  0.59360982     0.15800
H560        H  0.14835796  0.86850542  0.05769165     0.16400
C561        C  0.13454574  0.88091964  0.32804815    -0.13200
C562        C  0.12772813  0.85763879  0.33881904    -0.28400
H563        H  0.12727144  0.89046828  0.34966716     0.15800
H564        H  0.13533793  0.84834379  0.31738714     0.16400
C565        C  0.10575043  0.66822370  0.20015567    -0.13200
C566        C  0.11571015  0.65821199  0.22902122    -0.28400
H567        H  0.08604583  0.65879253  0.19556098     0.15800
H568        H  0.13521486  0.66823273  0.23651533     0.16400
C569        C  0.20151535  0.78688257  0.03307010    -0.13200
C570        C  0.20586144  0.80964620  0.02438066    -0.28400
H571        H  0.20981640  0.77904158  0.00912679     0.15800
H572        H  0.19677969  0.81702457  0.04727244     0.16400
C573        C  0.20836414  0.78894160  0.28798601    -0.13200
C574        C  0.18573027  0.78441403  0.27721950    -0.28400
H575        H  0.21658002  0.78058845  0.26535769     0.15800
H576        H  0.17777940  0.79315033  0.29945163     0.16400
C577        C  0.08615975  0.76511790  0.05921160    -0.13200
C578        C  0.09957127  0.75537011  0.04408090    -0.28400
H579        H  0.08244862  0.76557210  0.09946550     0.15800
H580        H  0.10283456  0.75430604  0.00379961     0.16400
C581        C  0.58142584  0.56766528  0.11082594    -0.13200
C582        C  0.57011330  0.57947226  0.12686285    -0.28400
H583        H  0.58305589  0.56531008  0.07029201     0.15800
H584        H  0.56863420  0.58200415  0.16736957     0.16400
C585        C  0.44983642  0.33581918  0.00983871    -0.13200
C586        C  0.42764811  0.32284560  0.03126229    -0.28400
H587        H  0.46117170  0.32770721  0.00444063     0.15800
H588        H  0.41566595  0.33037201  0.03293480     0.16400
C589        C  0.54551607  0.45365378  0.34210912    -0.13200
C590        C  0.55161401  0.47711380  0.33554593    -0.28400
H591        H  0.55254585  0.44516176  0.31645232     0.15800
H592        H  0.54398297  0.48530445  0.36044018     0.16400
C593        C  0.54614847  0.45851894  0.10491409    -0.13200
C594        C  0.52228693  0.45137279  0.10232865    -0.28400
H595        H  0.55404827  0.45118642  0.07846461     0.15800
H596        H  0.51454125  0.45887288  0.12878101     0.16400
C597        C  0.34107026  0.43825307  0.20679424    -0.13200
C598        C  0.33003004  0.45003140  0.18919493    -0.28400
H599        H  0.33261386  0.41868612  0.20033716     0.15800
H600        H  0.33906760  0.46979662  0.19256978     0.16400
C601        C  0.46056589  0.54249050  0.41022769    -0.13200
C602        C  0.46561765  0.53220445  0.37098968    -0.28400
H603        H  0.44206914  0.53877513  0.41615264     0.15800
H604        H  0.48429522  0.53638430  0.36531893     0.16400
C605        C  0.46124493  0.53986673  0.13653167    -0.13200
C606        C  0.45687955  0.51697770  0.14333183    -0.28400
H607        H  0.45194332  0.54688766  0.15976768     0.15800
H608        H  0.46655716  0.51018113  0.12066867     0.16400
C609        C  0.43806815  0.41608278  0.35797090    -0.13200
C610        C  0.42652355  0.42799000  0.37205974    -0.28400
H611        H  0.43908342  0.41231645  0.31793112     0.15800
H612        H  0.42509867  0.43131994  0.41218283     0.16400
C613        C  0.90141445  0.56571007  0.07108125    -0.13200
C614        C  0.89303055  0.54516534  0.04304834    -0.28400
H615        H  0.92074622  0.57650204  0.07995593     0.15800
H616        H  0.87398689  0.53513617  0.03160648     0.16400
C617        C  0.00127704  0.78740791  0.34357937    -0.13200
C618        C  0.00522435  0.78677261  0.39364411    -0.28400
H619        H  0.01651182  0.79783566  0.31796582     0.15800
H620        H  0.98977672  0.77787386  0.41946447     0.16400
C621        C  0.91214038  0.68415362  0.19658591    -0.13200
C622        C  0.89973247  0.66102420  0.21300972    -0.28400
H623        H  0.91536148  0.68759161  0.15609942     0.15800
H624        H  0.89691722  0.65750055  0.25353270     0.16400
C625        C  0.67447213  0.55384260  0.30233259    -0.13200
C626        C  0.66870566  0.55290576  0.25293894    -0.28400
H627        H  0.66023701  0.54379550  0.33026217     0.15800
H628        H  0.68302011  0.56135951  0.22446452     0.16400
C629        C  0.79887548  0.58153872  0.22206595    -0.13200
C630        C  0.79175228  0.59813767  0.22730698    -0.28400
H631        H  0.79218818  0.56621255  0.24788211     0.15800
H632        H  0.79906625  0.61377872  0.20218975     0.16400
C633        C  0.79535437  0.57904109  0.49232494    -0.13200
C634        C  0.79972810  0.59684738  0.45978698    -0.28400
H635        H  0.82247987  0.61117722  0.95846450     0.15800
H636        H  0.81710080  0.61392771  0.46127751     0.16400
C637        C  0.87479801  0.73995386  0.44356144    -0.13200
C638        C  0.88807040  0.75808807  0.41120681    -0.28400
H639        H  0.87588314  0.72343747  0.44194170     0.15800
H640        H  0.88719500  0.77471727  0.41241224     0.16400
C641        C  0.85735915  0.73901820  0.17355528    -0.13200
C642        C  0.88109932  0.75662104  0.17657027    -0.28400
H643        H  0.84970970  0.72414597  0.20065663     0.15800
H644        H  0.88902559  0.77120685  0.14883431     0.16400
C645        C  0.76804790  0.67989473  0.43957070    -0.13200
C646        C  0.75435399  0.65619418  0.45129032    -0.28400
H647        H  0.77187376  0.68525602  0.39996877     0.15800
H648        H  0.75028864  0.65096076  0.49092178     0.16400
C649        C  0.56577333  0.98570863  0.37672104    -0.13200
C650        C  0.57703486  0.00963364  0.36656252    -0.28400
H651        H  0.56459782  0.97983967  0.41581002     0.15800
H652        H  0.57874598  0.01564485  0.32746317     0.16400
C653        C  0.44820449  0.11166073  0.28508636    -0.13200
C654        C  0.42463075  0.10148291  0.29879827    -0.28400
H655        H  0.45966317  0.13142075  0.28336959     0.15800
H656        H  0.41293877  0.08172627  0.29724761     0.16400
C657        C  0.54487368  0.08150270  0.37947749    -0.13200
C658        C  0.52096415  0.06496228  0.37286237    -0.28400
H659        H  0.55386756  0.09752608  0.35547139     0.15800
H660        H  0.51223402  0.04868553  0.39621073     0.16400
C661        C  0.53484886  0.07979206  0.12744088    -0.13200
C662        C  0.54329993  0.06427517  0.12182904    -0.28400
H663        H  0.54041073  0.09475479  0.10104908     0.15800
H664        H  0.53727791  0.04901187  0.14760881     0.16400
C665        C  0.32819720  0.87872844  0.44416459    -0.13200
C666        C  0.33566842  0.88305793  0.49289590    -0.28400
H667        H  0.34158100  0.88509527  0.41362752     0.15800
H668        H  0.32243105  0.87545540  0.52360850     0.16400
C669        C  0.45150240  0.92951285  0.39545040    -0.13200
C670        C  0.45751813  0.91234859  0.38624755    -0.28400
H671        H  0.45904200  0.94570432  0.37189114     0.15800
H672        H  0.45012124  0.89610631  0.40959059     0.16400
C673        C  0.47363220  0.93268051  0.15057660    -0.13200
C674        C  0.44937054  0.91743502  0.14600163    -0.28400
H675        H  0.48314137  0.94806661  0.12504055     0.15800
H676        H  0.43968795  0.90233493  0.17212827     0.16400
C677        C  0.42688110  0.99963096  0.16298293    -0.13200
C678        C  0.42617603  0.99869730  0.11176711    -0.28400
H679        H  0.41847702  0.98276294  0.18446803     0.15800
H680        H  0.43547600  0.01554777  0.09027970     0.16400
C681        C  0.88565077  0.31699609  0.29920718    -0.13200
C682        C  0.89606627  0.33862077  0.32322569    -0.28400
H683        H  0.88655795  0.31642587  0.25798346     0.15800
H684        H  0.89722107  0.33936848  0.36446039     0.16400
C685        C  0.99646862  0.20126082  0.09815764    -0.13200
C686        C  0.00879961  0.22300798  0.12217771    -0.28400
H687        H  0.00492986  0.19027935  0.09223860     0.15800
H688        H  0.00062137  0.23438611  0.12517888     0.16400
C689        C  0.90139188  0.22745354  0.49763743    -0.13200
C690        C  0.90104191  0.22809914  0.44637097    -0.28400
H691        H  0.91338166  0.22161752  0.91123906     0.15800
H692        H  0.90857419  0.21896079  0.42413353     0.16400
C693        C  0.88161383  0.13719421  0.18441783    -0.13200
C694        C  0.87463183  0.11375033  0.19440156    -0.28400
H695        H  0.87508606  0.14680671  0.20812227     0.15800
H696        H  0.88064545  0.10386690  0.17015164     0.16400
C697        C  0.85770555  0.11928895  0.43783160    -0.13200
C698        C  0.88071929  0.12491534  0.44801428    -0.28400
H699        H  0.84910944  0.12737708  0.46009897     0.15800
H700        H  0.88973432  0.11760777  0.42470652     0.16400
C701        C  0.67541338  0.10151209  0.05241959    -0.13200
C702        C  0.66207724  0.11155079  0.03939472    -0.28400
H703        H  0.66833357  0.08220159  0.04496033     0.15800
H704        H  0.66961485  0.13110860  0.04391379     0.16400
C705        C  0.80066686  0.19390261  0.21962356    -0.13200
C706        C  0.79630712  0.20496075  0.25829025    -0.28400
H707        H  0.81873562  0.19620547  0.21542808     0.15800
H708        H  0.77848247  0.20319077  0.26261457     0.16400
C709        C  0.79026219  0.18485051  0.49812644    -0.13200
C710        C  0.79905031  0.20894520  0.49218771    -0.28400
H711        H  0.79579855  0.17507186  0.47233477     0.15800
H712        H  0.79403699  0.21894534  0.51855256     0.16400
C713        C  0.75896386  0.09479431  0.21650534    -0.13200
C714        C  0.77236224  0.08474038  0.20369223    -0.28400
H715        H  0.75544156  0.09656650  0.25634297     0.15800
H716        H  0.77552838  0.08254732  0.16385312     0.16400
C717        C  0.54920443  0.66738457  0.42794695    -0.13200
C718        C  0.54868866  0.66126930  0.47703668    -0.28400
H719        H  0.54040888  0.65316653  0.39914496     0.15800
H720        H  0.55397043  0.67708900  0.00757937     0.16400
C721        C  0.76111620  0.76683414  0.13904123    -0.13200
C722        C  0.78086721  0.77688457  0.10868989    -0.28400
H723        H  0.75117707  0.74723552  0.14533346     0.15800
H724        H  0.78981083  0.79619168  0.09957217     0.16400
C725        C  0.65703584  0.76265221  0.25904763    -0.13200
C726        C  0.65473664  0.76135998  0.31010097    -0.28400
H727        H  0.64089538  0.75594964  0.23538359     0.15800
H728        H  0.67094213  0.76913526  0.33384168     0.16400
C729        C  0.54635918  0.88577001  0.21933710    -0.13200
C730        C  0.55246553  0.88562784  0.17032290    -0.28400
H731        H  0.54995563  0.87544659  0.24712032     0.15800
H732        H  0.54735706  0.89439210  0.14163778     0.16400
C733        C  0.57875202  0.79296107  0.01663864    -0.13200
C734        C  0.59660956  0.78812667  0.00579645    -0.28400
H735        H  0.56180568  0.78415150  0.99523858     0.15800
H736        H  0.61368289  0.79737116  0.02676405     0.16400
C737        C  0.59018177  0.80769190  0.25747484    -0.13200
C738        C  0.57295199  0.78407050  0.26417210    -0.28400
H739        H  0.60576387  0.81641563  0.28295603     0.15800
H740        H  0.55749123  0.77503146  0.23847876     0.16400
C741        C  0.78166388  0.98929843  0.39529280    -0.13200
C742        C  0.77393289  0.00240595  0.37011577    -0.28400
H743        H  0.80100901  0.99673412  0.40221466     0.15800
H744        H  0.75444908  0.99529764  0.36622773     0.16400
C745        C  0.72413240  0.85244180  0.02706674    -0.13200
C746        C  0.74113091  0.85649065  0.06158965    -0.28400
H747        H  0.70707659  0.83503857  0.02628073     0.15800
H748        H  0.75828304  0.87379694  0.06217836     0.16400
C749        C  0.74228129  0.86307391  0.30516616    -0.13200
C750        C  0.72836202  0.87349911  0.30656857    -0.28400
H751        H  0.75539808  0.86669414  0.33514244     0.15800
H752        H  0.71478137  0.86928419  0.27727923     0.16400
C753        C  0.66344884  0.89926383  0.00160220    -0.13200
C754        C  0.66230508  0.89940292  0.05277016    -0.28400
H755        H  0.64672823  0.89142997  0.97948119     0.15800
H756        H  0.67891137  0.90639618  0.07501444     0.16400
O757        O  0.71306732  0.88733443  0.84195441    -0.54600
C758        C  0.68596369  0.90451355  0.97438121     0.78100
O759        O  0.74513026  0.89820895  0.50106955    -0.55700
C760        C  0.73026788  0.88292863  0.83573520     0.78000
C761        C  0.76028271  0.95682639  0.89859008     0.80400
Cd762      Cd  0.72744651  0.90673275  0.92520651     1.37500
O763        O  0.68537661  0.89892732  0.92773897    -0.54600
O764        O  0.73871397  0.94430523  0.88185685    -0.53400
C765        C  0.72551763  0.87743599  0.50187270     0.80400
O766        O  0.76707975  0.94642320  0.93001453    -0.55700
O767        O  0.70630938  0.91315457  0.99687516    -0.54200
O768        O  0.74641772  0.89033111  0.86997604    -0.54200
O769        O  0.71034410  0.86622058  0.95898319    -0.53400
O770        O  0.61295457  0.84743543  0.72128977    -0.54600
C771        C  0.64272622  0.89259456  0.59720559     0.78100
O772        O  0.57639845  0.82175863  0.57310751    -0.55700
C773        C  0.59500448  0.82597541  0.72758728     0.78000
C774        C  0.56824826  0.87431910  0.66883696     0.80400
Cd775      Cd  0.59830467  0.85394936  0.64068984     1.37500
O776        O  0.64221885  0.88568468  0.64244095    -0.54600
O777        O  0.58360082  0.87400315  0.69859516    -0.53400
C778        C  0.59331912  0.81665812  0.57039037     0.80400
O779        O  0.56634809  0.86494533  0.62503962    -0.55700
O780        O  0.62240603  0.88367379  0.57466364    -0.54200
O781        O  0.57795328  0.81801934  0.69514105    -0.54200
O782        O  0.61128085  0.82832543  0.59979328    -0.53400
O783        O  0.68563317  0.77839588  0.67269451    -0.54600
C784        C  0.73742323  0.83743298  0.58975807     0.78100
O785        O  0.75261337  0.82952325  0.74919458    -0.55700
C786        C  0.68468514  0.77326096  0.71951152     0.78000
C787        C  0.75370833  0.77920956  0.64178007     0.80400
Cd788      Cd  0.73038979  0.80591561  0.67220154     1.37500
O789        O  0.71646515  0.81912164  0.59891337    -0.54600
O790        O  0.73084458  0.76999636  0.63903561    -0.53400
C791        C  0.74213399  0.84203486  0.74859647     0.80400
O792        O  0.76591205  0.80054768  0.66048736    -0.55700
O793        O  0.75512077  0.83945150  0.61521880    -0.54200
O794        O  0.70485541  0.78159456  0.74253587    -0.54200
O795        O  0.72774045  0.83822492  0.71222559    -0.53400
O796        O  0.63749446  0.75602428  0.87282487    -0.54600
C797        C  0.59504747  0.77208286  0.96348921     0.78100
O798        O  0.56786660  0.74853393  0.81262648    -0.55700
C799        C  0.63731190  0.75145377  0.82578957     0.78000
C800        C  0.56598301  0.69368532  0.91177562     0.80400
Cd801      Cd  0.59388303  0.74392562  0.87727717     1.37500
O802        O  0.61337866  0.77025751  0.95106919    -0.54600
O803        O  0.58017707  0.71118039  0.94053877    -0.53400
C804        C  0.58234843  0.77145218  0.80916073     0.80400
O805        O  0.56414253  0.69917260  0.86647790    -0.55700
O806        O  0.57581813  0.76003014  0.93720915    -0.54200
O807        O  0.61680858  0.74152119  0.80386066    -0.54200
O808        O  0.60086453  0.78078268  0.83768358    -0.53400
O809        O  0.76899998  0.14931946  0.54960936    -0.54600
C810        C  0.74449490  0.10822568  0.68876077     0.78100
O811        O  0.76170678  0.17927631  0.69312189    -0.55700
C812        C  0.77430814  0.17109540  0.54070533     0.78000
C813        C  0.69766911  0.12944704  0.59013404     0.80400
Cd814      Cd  0.74633574  0.14611968  0.62758475     1.37500
O815        O  0.75166542  0.11077792  0.64278134    -0.54600
O816        O  0.70967300  0.11903018  0.57968742    -0.53400
C817        C  0.78284583  0.18154353  0.69322014     0.80400
O818        O  0.70777203  0.14770059  0.62032737    -0.55700
O819        O  0.73568128  0.12115933  0.70382578    -0.54200
O820        O  0.76566507  0.18056566  0.57057335    -0.54200
O821        O  0.78633917  0.16793868  0.66330982    -0.53400
O822        O  0.81248865  0.09321088  0.89145051    -0.54600
C823        C  0.77235063  0.07393628  0.74861832     0.78100
O824        O  0.83886668  0.08182407  0.74578096    -0.55700
C825        C  0.83244004  0.09413631  0.90186160     0.78000
C826        C  0.78123691  0.01982003  0.84231665     0.80400
Cd827      Cd  0.80639330  0.06993863  0.81198353     1.37500
O828        O  0.77504955  0.08080701  0.79498945    -0.54600
O829        O  0.77244901  0.03363860  0.84771026    -0.53400
C830        C  0.84389022  0.10400153  0.74678132     0.80400
O831        O  0.80210864  0.02888362  0.82133295    -0.55700
O832        O  0.78339491  0.06305464  0.73382096    -0.54200
O833        O  0.83895745  0.08245631  0.87283349    -0.54200
O834        O  0.83231981  0.10953791  0.77814388    -0.53400
O835        O  0.90222318  0.20469018  0.56914019    -0.54600
C836        C  0.89053068  0.13961063  0.64238238     0.78100
O837        O  0.91713806  0.15038939  0.49645558    -0.55700
C838        C  0.90949841  0.21244934  0.52444483     0.78000
C839        C  0.96626959  0.20025382  0.61390496     0.80400
Cd840      Cd  0.91835489  0.17632816  0.56889986     1.37500
O841        O  0.88964902  0.15913059  0.63961581    -0.54600
O842        O  0.94745046  0.19637834  0.63822209    -0.53400
C843        C  0.88862238  0.13378378  0.98307391     0.80400
O844        O  0.96329091  0.19343272  0.56761043    -0.55700
O845        O  0.90494133  0.13750179  0.61217384    -0.54200
O846        O  0.92802800  0.19812637  0.97043585    -0.54200
O847        O  0.88390257  0.14955144  0.51911894    -0.53400
O848        O  0.83991386  0.22662432  0.80012816    -0.54600
C849        C  0.88771268  0.24383846  0.93403594     0.78100
O850        O  0.86403660  0.29535902  0.86460521    -0.55700
C851        C  0.82117030  0.22878483  0.79532097     0.78000
C852        C  0.81791066  0.22454180  0.94914672     0.80400
Cd853      Cd  0.85471101  0.25265029  0.87687221     1.37500
O854        O  0.88292708  0.23681856  0.88781197    -0.54600
O855        O  0.82579915  0.21538055  0.91664298    -0.53400
C856        C  0.88369615  0.30183934  0.84020913     0.80400
O857        O  0.82704520  0.24764972  0.94844986    -0.55700
O858        O  0.87904000  0.25655272  0.95141952    -0.54200
O859        O  0.81920197  0.24322005  0.82572971    -0.54200
O860        O  0.89012273  0.28609149  0.83498169    -0.53400
O861        O  0.42272508  0.97364171  0.53154349    -0.54600
C862        C  0.43736689  0.93174760  0.94603738     0.78100
O863        O  0.42470820  0.91009511  0.59400373    -0.55700
C864        C  0.41882448  0.97393195  0.57880271     0.78000
C865        C  0.35906776  0.90084191  0.99802417     0.80400
Cd866      Cd  0.41265144  0.93055917  0.52964768     1.37500
O867        O  0.43240611  0.94853861  0.95257905    -0.54600
O868        O  0.37079740  0.92375321  0.99200493    -0.53400
C869        C  0.44671507  0.92776260  0.59465020     0.80400
O870        O  0.37016259  0.89730406  0.54866127    -0.55700
O871        O  0.42863964  0.91466958  0.97801066    -0.47000
O872        O  0.40931047  0.95364288  0.60140583    -0.54200
O873        O  0.45225221  0.94519087  0.56470889    -0.53400
O874        O  0.45220938  0.02104035  0.73033044    -0.54600
C875        C  0.50996434  0.06523502  0.82332608     0.78100
O876        O  0.51505560  0.08730250  0.66728999    -0.55700
C877        C  0.44613248  0.02128150  0.68463783     0.78000
C878        C  0.46503897  0.09519577  0.76268924     0.80400
Cd879      Cd  0.48435334  0.06431380  0.73360201     1.37500
O880        O  0.48873060  0.04757658  0.81388117    -0.54600
O881        O  0.45482742  0.07290234  0.77464838    -0.53400
C882        C  0.52085642  0.07105483  0.66088826     0.80400
O883        O  0.48395633  0.10334820  0.73511455    -0.55700
O884        O  0.51904017  0.08256960  0.79192514    -0.54200
O885        O  0.45633423  0.04183908  0.66280415    -0.54200
O886        O  0.50982520  0.05212085  0.68787886    -0.53400
O887        O  0.50004203  0.93804669  0.70588836    -0.54600
C888        C  0.54981652  0.97491966  0.82709194     0.78100
O889        O  0.48759078  0.90556924  0.85653645    -0.55700
C890        C  0.47991927  0.91784777  0.70362350     0.78000
C891        C  0.53818874  0.90231880  0.75036336     0.80400
Cd892      Cd  0.51411090  0.92831443  0.78339938     1.37500
O893        O  0.54306522  0.97349536  0.78123759    -0.54600
O894        O  0.53592594  0.91683798  0.72151124    -0.53400
C895        C  0.47839343  0.91925176  0.85940038     0.80400
O896        O  0.52944639  0.89977676  0.79484334    -0.55700
O897        O  0.54197495  0.95490550  0.85003522    -0.54200
O898        O  0.47611131  0.90219397  0.73723581    -0.54200
O899        O  0.48530738  0.93593539  0.82669269    -0.53400
O900        O  0.56044606  0.03997825  0.55070299    -0.54600
C901        C  0.57545165  0.02308891  0.93377832     0.78100
O902        O  0.58420848  0.09091275  0.91778326    -0.55700
C903        C  0.56003907  0.05824561  0.56959807     0.78000
C904        C  0.63727764  0.08865565  0.51888597     0.80400
Cd905      Cd  0.58613876  0.06703804  0.98944651     1.37500
O906        O  0.57123251  0.02283947  0.98101325    -0.54600
O907        O  0.62454492  0.06577991  0.51243556    -0.53400
C908        C  0.56104317  0.07861524  0.91610239     0.80400
O909        O  0.62560062  0.10604199  0.00044826    -0.55700
O910        O  0.58646081  0.04384801  0.91296049    -0.54200
O911        O  0.57369330  0.07873449  0.54916872    -0.54200
O912        O  0.55023326  0.06257227  0.94982711    -0.53400
O913        O  0.78508317  0.69307204  0.52356471    -0.54600
C914        C  0.84375750  0.73231687  0.63367540     0.78100
O915        O  0.84027538  0.75891091  0.97941438    -0.55700
C916        C  0.78266831  0.69856227  0.47845357     0.78000
C917        C  0.79844402  0.76263361  0.58244038     0.80400
Cd918      Cd  0.81903228  0.73453927  0.54525939     1.37500
O919        O  0.82323047  0.71434036  0.62028770    -0.54600
O920        O  0.78994528  0.74048280  0.59424798    -0.53400
C921        C  0.84813719  0.74417207  0.97431455     0.80400
O922        O  0.81663691  0.77207815  0.55244032    -0.55700
O923        O  0.85222199  0.75155384  0.60747580    -0.54200
O924        O  0.78489724  0.71369019  0.97427693    -0.54200
O925        O  0.84413935  0.72120153  0.50569192    -0.53400
O926        O  0.75558288  0.63132766  0.88939024    -0.54600
C927        C  0.77173133  0.59020168  0.78458026     0.78100
O928        O  0.75195567  0.56490374  0.93880730    -0.55700
C929        C  0.74787062  0.62763853  0.93496631     0.78000
C930        C  0.69551688  0.56039314  0.83152988     0.80400
Cd931      Cd  0.74457236  0.58840703  0.87286901     1.37500
O932        O  0.76912960  0.60808048  0.79719697    -0.54600
O933        O  0.70961776  0.58283747  0.82236364    -0.53400
C934        C  0.77474613  0.58032927  0.94154429     0.80400
O935        O  0.70349342  0.55074602  0.86216447    -0.55700
O936        O  0.76122113  0.57134115  0.81200221    -0.54200
O937        O  0.73681285  0.60570549  0.94983330    -0.54200
O938        O  0.78302490  0.59838591  0.91193950    -0.53400
O939        O  0.89226897  0.71374131  0.87943942    -0.54600
C940        C  0.91021481  0.68699524  0.75838203     0.78100
O941        O  0.91608977  0.75864500  0.73906478    -0.55700
C942        C  0.88855317  0.73131657  0.88711280     0.78000
C943        C  0.96787623  0.76028175  0.84278718     0.80400
Cd944      Cd  0.91822467  0.73172491  0.80503509     1.37500
O945        O  0.90584013  0.68781615  0.80517009    -0.54600
O946        O  0.95003893  0.74687286  0.87123820    -0.53400
C947        C  0.89381395  0.74352386  0.72900022     0.80400
O948        O  0.96298649  0.76090043  0.79640760    -0.55700
O949        O  0.92054251  0.70710529  0.73515070    -0.54200
O950        O  0.89898918  0.74935013  0.85737795    -0.54200
O951        O  0.88352375  0.72418384  0.75484820    -0.53400
O952        O  0.87352245  0.63648233  0.61238760    -0.54600
C953        C  0.81328275  0.58308978  0.53205964     0.78100
O954        O  0.86332918  0.56331558  0.61200430    -0.55700
C955        C  0.88284105  0.63779514  0.65558525     0.78000
C956        C  0.81135295  0.57954664  0.69016616     0.80400
Cd957      Cd  0.84686820  0.59159333  0.61195071     1.37500
O958        O  0.83261597  0.60368588  0.53844414    -0.54600
O959        O  0.81747836  0.59676919  0.65914411    -0.53400
C960        C  0.87163009  0.56866663  0.56696539     0.80400
O961        O  0.82125935  0.56660433  0.68449309    -0.55700
O962        O  0.80971360  0.56619504  0.56223942    -0.54200
O963        O  0.87709555  0.61775598  0.67663081    -0.54200
O964        O  0.86895434  0.58460990  0.54456453    -0.53400
O965        O  0.44055584  0.48851502  0.70886806    -0.54600
C966        C  0.41843536  0.44165725  0.82495085     0.78100
O967        O  0.41838096  0.51073606  0.84882525    -0.55700
C968        C  0.44299178  0.50911434  0.69880813     0.78000
C969        C  0.36441850  0.46092004  0.74835805     0.80400
Cd970      Cd  0.41409401  0.48076574  0.78217030     1.37500
O971        O  0.42402889  0.44775406  0.77897215    -0.54600
O972        O  0.38153836  0.46482415  0.71820722    -0.53400
C973        C  0.44075815  0.51809667  0.85663272     0.80400
O974        O  0.37010440  0.46640775  0.79463344    -0.55700
O975        O  0.40899497  0.45208811  0.84918013    -0.54200
O976        O  0.43160686  0.51639259  0.72675848    -0.54200
O977        O  0.45020038  0.50841954  0.82985691    -0.53400
O978        O  0.49360023  0.43387226  0.53077189    -0.54600
C979        C  0.44028888  0.41606770  0.92704744     0.78100
O980        O  0.50973841  0.42604866  0.90162628    -0.55700
C981        C  0.51528069  0.43941132  0.54121150     0.78000
C982        C  0.47184805  0.36143864  0.49530161     0.80400
Cd983      Cd  0.47884919  0.41219319  0.97156891     1.37500
O984        O  0.44594615  0.42156366  0.97347209    -0.54600
O985        O  0.46104016  0.37339259  0.50123807    -0.53400
C986        C  0.51276281  0.44746872  0.90120209     0.80400
O987        O  0.47752096  0.37236196  0.96435033    -0.55700
O988        O  0.45043149  0.40608907  0.90335737    -0.54200
O989        O  0.52504123  0.43076623  0.51224249    -0.54200
O990        O  0.50058113  0.45198290  0.93294706    -0.53400
O991        O  0.54489225  0.57077746  0.52263602    -0.54600
C992        C  0.49276751  0.55961591  0.94665595     0.78100
O993        O  0.48833603  0.58305008  0.59850724    -0.55700
C994        C  0.55092905  0.57525931  0.56913531     0.78000
C995        C  0.53853575  0.63735029  0.99802002     0.80400
Cd996      Cd  0.51476516  0.58515928  0.52622042     1.37500
O997        O  0.51353308  0.56273828  0.95818239    -0.54600
O998        O  0.54051574  0.62138483  0.97282377    -0.53400
C999        C  0.48035540  0.56043242  0.60515059     0.80400
O1000       O  0.53036210  0.62950206  0.53907539    -0.55700
O1001       O  0.48459937  0.57038119  0.97413435    -0.54200
O1002       O  0.54219960  0.58627434  0.59370952    -0.54200
O1003       O  0.48774635  0.55008811  0.57458093    -0.53400
O1004       O  0.57099203  0.54466658  0.71684375    -0.54600
C1005       C  0.56025784  0.48358363  0.79804842     0.78100
O1006       O  0.58825241  0.49352168  0.63997835    -0.55700
C1007       C  0.57620872  0.55097282  0.67066196     0.78000
C1008       C  0.63713935  0.54317791  0.75559004     0.80400
Cd1009     Cd  0.58732507  0.51661778  0.71669361     1.37500
O1010       O  0.55839062  0.50223522  0.78983444    -0.54600
O1011       O  0.62395585  0.55271551  0.75232231    -0.53400
C1012       C  0.56517796  0.48221183  0.63466763     0.80400
O1013       O  0.62806745  0.52163177  0.73817880    -0.55700
O1014       O  0.57533152  0.48119981  0.77082270    -0.54200
O1015       O  0.58829470  0.54304043  0.64716241    -0.54200
O1016       O  0.55325371  0.48667822  0.66724369    -0.53400
O1017       O  0.14802430  0.76584021  0.72397333    -0.54600
C1018       C  0.11283188  0.74904313  0.57966200     0.78100
O1019       O  0.17321234  0.74328814  0.58182515    -0.55700
C1020       C  0.16888247  0.76932362  0.73588591     0.78000
C1021       C  0.11781299  0.69087935  0.68236479     0.80400
Cd1022     Cd  0.14374770  0.74098962  0.64729242     1.37500
O1023       O  0.11490282  0.75536092  0.62624631    -0.54600
O1024       O  0.10792402  0.70373202  0.67877612    -0.53400
C1025       C  0.18323024  0.76637090  0.57816423     0.80400
O1026       O  0.13986579  0.70070306  0.66793396    -0.55700
O1027       O  0.12324541  0.73742837  0.56600818    -0.54200
O1028       O  0.17721118  0.75870335  0.70867958    -0.54200
O1029       O  0.17569438  0.77688082  0.60794123    -0.53400
O1030       O  0.09803644  0.82256525  0.89232053    -0.54600
C1031       C  0.07925402  0.77878870  0.02458951     0.78100
O1032       O  0.07893800  0.84475395  0.03600476    -0.55700
C1033       C  0.09938033  0.84276382  0.88277206     0.78000
C1034       C  0.02339213  0.79079840  0.93183554     0.80400
Cd1035     Cd  0.07306445  0.81409283  0.96867595     1.37500
O1036       O  0.08706381  0.78405723  0.97921997    -0.54600
O1037       O  0.04019660  0.78998163  0.90755279    -0.53400
C1038       C  0.10146087  0.85554246  0.53345102     0.80400
O1039       O  0.02926863  0.80214941  0.97410768    -0.55700
O1040       O  0.06654570  0.78754456  0.04093860    -0.54200
O1041       O  0.08794417  0.84942513  0.91221530    -0.54200
O1042       O  0.11019447  0.84258499  0.01087995    -0.53400
O1043       O  0.22116453  0.84389831  0.96880638    -0.54600
C1044       C  0.24064044  0.88472712  0.83220403     0.78100
O1045       O  0.28941844  0.85859250  0.91373130    -0.55700
C1046       C  0.22097532  0.82460525  0.98171641     0.78000
C1047       C  0.22153894  0.81273650  0.82317962     0.80400
Cd1048     Cd  0.24774161  0.85176041  0.89442853     1.37500
O1049       O  0.23331771  0.88075276  0.87809065    -0.54600
O1050       O  0.21132710  0.82017863  0.85396750    -0.53400
C1051       C  0.29700393  0.87946893  0.93397245     0.80400
O1052       O  0.24468037  0.82288482  0.82601184    -0.55700
O1053       O  0.25260296  0.87493325  0.81671953    -0.54200
O1054       O  0.23392309  0.81861828  0.95562109    -0.54200
O1055       O  0.28237344  0.88739332  0.93401897    -0.53400
O1056       O  0.20494376  0.91015904  0.73283980    -0.54600
C1057       C  0.14974958  0.89502678  0.63179981     0.78100
O1058       O  0.14364666  0.91808861  0.78533633    -0.55700
C1059       C  0.21028747  0.91833039  0.77799175     0.78000
C1060       C  0.19527723  0.97220116  0.68009427     0.80400
Cd1061     Cd  0.17469583  0.92328751  0.71981358     1.37500
O1062       O  0.17014743  0.89801842  0.64557440    -0.54600
O1063       O  0.20253978  0.95782715  0.66617766    -0.53400
C1064       C  0.13668817  0.89567945  0.79179030     0.80400
O1065       O  0.17916452  0.96455843  0.71475808    -0.55700
O1066       O  0.14098068  0.90552620  0.65819217    -0.54200
O1067       O  0.20142283  0.93107876  0.79379833    -0.54200
O1068       O  0.14645989  0.88675539  0.76374771    -0.53400
O1069       O  0.12072212  0.36421565  0.85605742    -0.54600
C1070       C  0.17661390  0.40587045  0.96303909     0.78100
O1071       O  0.18095160  0.43333293  0.80842491    -0.55700
C1072       C  0.11641287  0.36826220  0.81122635     0.78000
C1073       C  0.13177142  0.43633967  0.91826111     0.80400
Cd1074     Cd  0.15129432  0.40772049  0.87506109     1.37500
O1075       O  0.15591338  0.38780664  0.95105832    -0.54600
O1076       O  0.12163094  0.41348269  0.92437399    -0.53400
C1077       C  0.18971866  0.41936046  0.80344082     0.80400
O1078       O  0.15017153  0.44599630  0.88897267    -0.55700
O1079       O  0.18510106  0.42441750  0.93484178    -0.54200
O1080       O  0.12593818  0.39042106  0.79859532    -0.54200
O1081       O  0.18125051  0.40107332  0.83245448    -0.53400
O1082       O  0.09499126  0.30990449  0.70261434    -0.54600
C1083       C  0.11084886  0.26894654  0.59484100     0.78100
O1084       O  0.08899859  0.24104593  0.74438969    -0.55700
C1085       C  0.08653061  0.30537262  0.74758987     0.78000
C1086       C  0.03489184  0.23962363  0.63933826     0.80400
Cd1087     Cd  0.08313025  0.26688321  0.68239666     1.37500
O1088       O  0.10898750  0.28719354  0.60832130    -0.54600
O1089       O  0.05120354  0.26001011  0.62231305    -0.53400
C1090       C  0.11176896  0.25619096  0.74861912     0.80400
O1091       O  0.04034699  0.23167711  0.67822209    -0.55700
O1092       O  0.09932690  0.24971634  0.62100342    -0.54200
O1093       O  0.07462872  0.28313128  0.76007352    -0.54200
O1094       O  0.12066638  0.27493060  0.72088252    -0.53400
O1095       O  0.23482887  0.39139021  0.70360312    -0.54600
C1096       C  0.25474872  0.37082973  0.56360806     0.78100
O1097       O  0.25204201  0.43484507  0.56373877    -0.55700
C1098       C  0.23165081  0.40908589  0.71459666     0.78000
C1099       C  0.30835824  0.43809852  0.66327413     0.80400
Cd1100     Cd  0.25901618  0.41019062  0.62697215     1.37500
O1101       O  0.24669149  0.36687772  0.60893106    -0.54600
O1102       O  0.29259469  0.41824924  0.68346952    -0.53400
C1103       C  0.22972402  0.41838016  0.55827232     0.80400
O1104       O  0.30151069  0.44527748  0.62534399    -0.55700
O1105       O  0.26689199  0.39291776  0.55016442    -0.54200
O1106       O  0.24201783  0.42768374  0.68629561    -0.54200
O1107       O  0.22157107  0.39991035  0.58663207    -0.53400
O1108       O  0.18491265  0.28918323  0.84939358    -0.54600
C1109       C  0.22600965  0.31109790  0.98436616     0.78100
O1110       O  0.16028904  0.24054401  0.98216134    -0.55700
C1111       C  0.16497449  0.27028824  0.83663579     0.78000
C1112       C  0.21715412  0.24652956  0.88080666     0.80400
Cd1113     Cd  0.19217061  0.27015237  0.92243255     1.37500
O1114       O  0.21948061  0.31445371  0.94113928    -0.54600
O1115       O  0.21699755  0.26400610  0.85872992    -0.53400
C1116       C  0.15049026  0.25682552  0.50309668     0.80400
O1117       O  0.20597631  0.23988276  0.92302160    -0.55700
O1118       O  0.21914941  0.28927270  0.99580083    -0.54200
O1119       O  0.15813443  0.25115915  0.86247391    -0.54200
O1120       O  0.16270771  0.27525708  0.97018359    -0.53400
O1121       O  0.29334881  0.17880883  0.89735046    -0.54600
C1122       C  0.32058675  0.22140925  0.76939239     0.78100
O1123       O  0.24732402  0.15949959  0.75841732    -0.55700
C1124       C  0.27464319  0.15815914  0.90620209     0.78000
C1125       C  0.25199962  0.21242690  0.86276304     0.80400
Cd1126     Cd  0.27648488  0.18788876  0.82315217     1.37500
O1127       O  0.32140361  0.21584736  0.81515792    -0.54600
O1128       O  0.26825545  0.21108515  0.88731261    -0.53400
C1129       C  0.26028219  0.14999737  0.74837197     0.80400
O1130       O  0.24714784  0.20288277  0.81868172    -0.55700
O1131       O  0.29959251  0.21369079  0.75094656    -0.54200
O1132       O  0.25633194  0.15147843  0.87759496    -0.54200
O1133       O  0.27954540  0.15746729  0.77411001    -0.53400
O1134       O  0.39037461  0.22599907  0.51980626    -0.54600
C1135       C  0.36396172  0.24109424  0.65543606     0.78100
O1136       O  0.42988232  0.24634240  0.66823801    -0.55700
C1137       C  0.40994677  0.22590775  0.51010438     0.78000
C1138       C  0.43007528  0.30088474  0.56383287     0.80400
Cd1139     Cd  0.40647668  0.25080332  0.59780193     1.37500
O1140       O  0.36224696  0.23408954  0.60943381    -0.54600
O1141       O  0.40721299  0.28662148  0.56255533    -0.53400
C1142       C  0.41645748  0.22314494  0.66800821     0.80400
O1143       O  0.44259027  0.29259693  0.58337181    -0.55700
O1144       O  0.38532751  0.25406979  0.67326957    -0.54200
O1145       O  0.42798169  0.23858190  0.53883137    -0.54200
O1146       O  0.39980619  0.21370787  0.63485876    -0.53400
O1147       O  0.30247975  0.09353339  0.54938715    -0.54600
C1148       C  0.26522715  0.10801523  0.65033009     0.78100
O1149       O  0.24333652  0.08187406  0.99996061    -0.55700
C1150       C  0.30064308  0.08728658  0.50292541     0.78000
C1151       C  0.23394506  0.02956180  0.59952758     0.80400
Cd1152     Cd  0.25887396  0.07911530  0.56130928     1.37500
O1153       O  0.28159123  0.10361934  0.63540542    -0.54600
O1154       O  0.25602980  0.04069303  0.58584390    -0.53400
C1155       C  0.25988370  0.10385568  0.99153746     0.80400
O1156       O  0.22227686  0.04060239  0.59282848    -0.55700
O1157       O  0.24564370  0.09848235  0.62494078    -0.54200
O1158       O  0.29157808  0.07090893  0.99066505    -0.54200
O1159       O  0.26370125  0.11420960  0.51746990    -0.53400
O1160       O  0.35383574  0.10849499  0.85068017    -0.54600
C1161       C  0.40172870  0.16801061  0.74961680     0.78100
O1162       O  0.41402077  0.17396421  0.90419989    -0.55700
C1163       C  0.35597661  0.10586319  0.89790112     0.78000
C1164       C  0.42161540  0.11552712  0.81460561     0.80400
Cd1165     Cd  0.39636350  0.14102192  0.83925508     1.37500
O1166       O  0.38298808  0.14703396  0.75638074    -0.54600
O1167       O  0.39939999  0.10738887  0.80420955    -0.53400
C1168       C  0.39607704  0.17761807  0.90092454     0.80400
O1169       O  0.43293417  0.13598451  0.83792805    -0.55700
O1170       O  0.41860092  0.17546975  0.78235059    -0.54200
O1171       O  0.37720291  0.11819530  0.91693341    -0.54200
O1172       O  0.37950471  0.16487377  0.86906783    -0.53400
O1173       O  0.95770082  0.43702558  0.80563564    -0.54600
C1174       C  0.96721210  0.41035292  0.65866684     0.78100
O1175       O  0.89474352  0.37263318  0.74779837    -0.55700
C1176       C  0.94090678  0.44091008  0.82046554     0.78000
C1177       C  0.92409424  0.43964086  0.66447533     0.80400
Cd1178     Cd  0.93378603  0.41099103  0.73206967     1.37500
O1179       O  0.97428315  0.41857296  0.70345773    -0.54600
O1180       O  0.94418482  0.44777841  0.68756633    -0.53400
C1181       C  0.90416499  0.36262802  0.77310349     0.80400
O1182       O  0.90739850  0.41785841  0.67410418    -0.55700
O1183       O  0.94456704  0.40028961  0.64998797    -0.54200
O1184       O  0.92128819  0.43066961  0.79520729    -0.54200
O1185       O  0.92720391  0.37447373  0.77731492    -0.53400
O1186       O  0.02239431  0.44234414  0.54400246    -0.54600
C1187       C  0.06589650  0.50333751  0.95303390     0.78100
O1188       O  0.09501825  0.50408387  0.58568169    -0.55700
C1189       C  0.02710068  0.43633069  0.58647811     0.78000
C1190       C  0.09221989  0.45423991  0.99811211     0.80400
Cd1191     Cd  0.06576049  0.47214714  0.52410963     1.37500
O1192       O  0.04771661  0.48341540  0.96812765    -0.54600
O1193       O  0.06937887  0.44470316  0.00275020    -0.53400
C1194       C  0.08015468  0.51132025  0.59646447     0.80400
O1195       O  0.09619837  0.45870006  0.51444967    -0.55700
O1196       O  0.08544474  0.51170300  0.97826514    -0.54200
O1197       O  0.04935781  0.44449539  0.59651523    -0.54200
O1198       O  0.06004597  0.50096367  0.57302027    -0.53400
O1199       O  0.95610012  0.51124602  0.55896875    -0.54600
C1200       C  0.98281603  0.55167503  0.94408531     0.78100
O1201       O  0.91660341  0.48863745  0.92387378    -0.55700
C1202       C  0.93777553  0.49099281  0.57217698     0.78000
C1203       C  0.90848738  0.53760890  0.53738777     0.80400
Cd1204     Cd  0.93947313  0.51556544  0.99619717     1.37500
O1205       O  0.98366156  0.54672225  0.99034372    -0.54600
O1206       O  0.92757681  0.53941242  0.55610780    -0.53400
C1207       C  0.93053391  0.47988519  0.91853048     0.80400
O1208       O  0.93083452  0.54489512  0.04167651    -0.55700
O1209       O  0.96183233  0.54209296  0.92427015    -0.54200
O1210       O  0.91821312  0.48333878  0.54717859    -0.54200
O1211       O  0.94764900  0.48675220  0.95040072    -0.53400
O1212       O  0.05277710  0.55615844  0.69933227    -0.54600
C1213       C  0.02736562  0.57221211  0.83257134     0.78100
O1214       O  0.09411080  0.57551217  0.84907294    -0.55700
C1215       C  0.06996779  0.55212028  0.68970094     0.78000
C1216       C  0.09928964  0.62939273  0.74551725     0.80400
Cd1217     Cd  0.07021339  0.57908722  0.77886375     1.37500
O1218       O  0.02610451  0.56458162  0.78730682    -0.54600
O1219       O  0.07652877  0.61659817  0.73786557    -0.53400
C1220       C  0.07922368  0.55285193  0.85535921     0.80400
O1221       O  0.10872800  0.61945332  0.77093940    -0.55700
O1222       O  0.04855812  0.58492577  0.85124579    -0.54200
O1223       O  0.08770576  0.56112471  0.72041099    -0.54200
O1224       O  0.06128199  0.54268927  0.82525850    -0.53400
C1225       C  0.00532333  0.56627185  0.91392022    -0.13200
C1226       C  0.00501583  0.56504066  0.86267240    -0.28400
H1227       H  0.02265678  0.57493268  0.93395471     0.15800
H1228       H  0.98765225  0.55517405  0.84285300     0.16400
C1229       C  0.08220065  0.53903963  0.89655595    -0.13200
C1230       C  0.06419497  0.51637352  0.90873782    -0.28400
H1231       H  0.09882190  0.54813725  0.91901593     0.15800
H1232       H  0.04727154  0.50762062  0.88722824     0.16400
C1233       C  0.08518206  0.53018626  0.63567183    -0.13200
C1234       C  0.06852990  0.53686339  0.64574045    -0.28400
H1235       H  0.10165323  0.53735427  0.65840344     0.15800
H1236       H  0.05212807  0.52952093  0.62269532     0.16400
C1237       C  0.94402917  0.45678144  0.86463635    -0.13200
C1238       C  0.92713368  0.46287344  0.87657356    -0.28400
H1239       H  0.96075429  0.46417837  0.88660909     0.15800
H1240       H  0.91079331  0.45606062  0.85352412     0.16400
C1241       C  0.92077786  0.45469123  0.62690628    -0.13200
C1242       C  0.93948236  0.47681854  0.61399593    -0.28400
H1243       H  0.90330773  0.44698816  0.60763074     0.15800
H1244       H  0.95700676  0.48431584  0.63297869     0.16400
C1245       C  0.98444657  0.41430900  0.61682875    -0.13200
C1246       C  0.00819905  0.42278992  0.62535672    -0.28400
H1247       H  0.97806466  0.41339412  0.57820213     0.15800
H1248       H  0.01439826  0.42312077  0.66390322     0.16400
C1249       C  0.33501286  0.09122086  0.98060768    -0.13200
C1250       C  0.33429301  0.09038079  0.92939113    -0.28400
H1251       H  0.34015950  0.10401211  0.49085635     0.15800
H1252       H  0.31678695  0.08081010  0.91004424     0.16400
C1253       C  0.40306647  0.18335506  0.70683976    -0.13200
C1254       C  0.41913284  0.20760856  0.70561164    -0.28400
H1255       H  0.38878344  0.17489986  0.67832803     0.15800
H1256       H  0.43299098  0.21632522  0.73488320     0.16400
C1257       C  0.41072448  0.21080846  0.96468042    -0.13200
C1258       C  0.39326740  0.19498770  0.93336473    -0.28400
H1259       H  0.42847279  0.21034721  0.46573010     0.15800
H1260       H  0.37566721  0.19393100  0.93279085     0.16400
C1261       C  0.25383539  0.13163398  0.70771386    -0.13200
C1262       C  0.26933065  0.12395820  0.69449752    -0.28400
H1263       H  0.23702415  0.12545787  0.68667024     0.15800
H1264       H  0.28637198  0.13065388  0.71501865     0.16400
C1265       C  0.25684400  0.11944926  0.95455937    -0.13200
C1266       C  0.27491576  0.14266618  0.94708655    -0.28400
H1267       H  0.24033721  0.11155690  0.93176100     0.15800
H1268       H  0.29140127  0.15030005  0.96994191     0.16400
C1269       C  0.34293277  0.23477920  0.73824894    -0.13200
C1270       C  0.34196678  0.23338480  0.68703482    -0.28400
H1271       H  0.36046597  0.24309147  0.75745917     0.15800
H1272       H  0.32436083  0.22374854  0.66808098     0.16400
C1273       C  0.22956200  0.23453541  0.85747481    -0.13200
C1274       C  0.23924035  0.22413980  0.88565545    -0.28400
H1275       H  0.23183522  0.23532980  0.81643350     0.15800
H1276       H  0.23873605  0.22517085  0.92686620     0.16400
C1277       C  0.24866711  0.35098611  0.52619758    -0.13200
C1278       C  0.23534869  0.32732475  0.53871569    -0.28400
H1279       H  0.25266707  0.35599046  0.48645170     0.15800
H1280       H  0.23172371  0.32232462  0.57852835     0.16400
C1281       C  0.13194048  0.25302596  0.54159112    -0.13200
C1282       C  0.12634069  0.27046077  0.55156321    -0.28400
H1283       H  0.12422650  0.23663886  0.56455223     0.15800
H1284       H  0.13472320  0.28717698  0.52956632     0.16400
C1285       C  0.15024123  0.27104998  0.79462532    -0.13200
C1286       C  0.12721543  0.25289449  0.78544274    -0.28400
H1287       H  0.15797835  0.28788391  0.77310695     0.15800
H1288       H  0.11909921  0.23631734  0.80784771     0.16400
C1289       C  0.10226984  0.44044872  0.97251065    -0.13200
C1290       C  0.12294281  0.45108806  0.94484454    -0.28400
H1291       H  0.09117626  0.42064671  0.97333530     0.15800
H1292       H  0.13343762  0.47084387  0.94147016     0.16400
C1293       C  0.21397275  0.41970321  0.51919748    -0.13200
C1294       C  0.19248167  0.39964618  0.50738564    -0.28400
H1295       H  0.22077847  0.43636491  0.49743273     0.15800
H1296       H  0.18622608  0.38283731  0.52835556     0.16400
C1297       C  0.20837102  0.42363132  0.76475791    -0.13200
C1298       C  0.21589950  0.40747011  0.75745742    -0.28400
H1299       H  0.21483321  0.43933579  0.74006403     0.15800
H1300       H  0.20889891  0.39148935  0.78152040     0.16400
C1301       C  0.10306019  0.34850119  0.77335035    -0.13200
C1302       C  0.09193134  0.32478302  0.78566461    -0.28400
H1303       H  0.10513293  0.35362397  0.73356838     0.15800
H1304       H  0.08930473  0.31962514  0.82545599     0.16400
C1305       C  0.22303839  0.00503817  0.62215764    -0.13200
C1306       C  0.20482960  0.99648104  0.65652476    -0.28400
H1307       H  0.23161079  0.99441189  0.61295281     0.15800
H1308       H  0.19701415  0.00755097  0.66789661     0.16400
C1309       C  0.22418514  0.91162308  0.81255184    -0.13200
C1310       C  0.23407396  0.89838477  0.79671351    -0.28400
H1311       H  0.22369948  0.91513633  0.85292539     0.15800
H1312       H  0.23517451  0.89542185  0.75626660     0.16400
C1313       C  0.11436560  0.87394623  0.57364962    -0.13200
C1314       C  0.13693508  0.87950348  0.58774650    -0.28400
H1315       H  0.10922130  0.87725107  0.10618973     0.15800
H1316       H  0.14607259  0.87131164  0.56781999     0.16400
C1317       C  0.11880619  0.88060532  0.83116133    -0.13200
C1318       C  0.11418887  0.85777241  0.83991121    -0.28400
H1319       H  0.11070017  0.88868158  0.85499349     0.15800
H1320       H  0.12281679  0.85011528  0.81640479     0.16400
C1321       C  0.10376553  0.66575495  0.70231938    -0.13200
C1322       C  0.11417042  0.65443866  0.72505795    -0.28400
H1323       H  0.08398187  0.65679964  0.70072582     0.15800
H1324       H  0.13389573  0.66375668  0.72904339     0.16400
C1325       C  0.20199424  0.78049255  0.53964501    -0.13200
C1326       C  0.20876156  0.80394947  0.53099584    -0.28400
H1327       H  0.20874522  0.77117430  0.51566601     0.15800
H1328       H  0.20126437  0.81285678  0.55413342     0.16400
C1329       C  0.20701040  0.79368362  0.78494837    -0.13200
C1330       C  0.18305157  0.78563589  0.77832450    -0.28400
H1331       H  0.21636652  0.78738522  0.75988453     0.15800
H1332       H  0.17397041  0.79261153  0.80240034     0.16400
C1333       C  0.08733921  0.76645072  0.55487385    -0.13200
C1334       C  0.10066040  0.75631012  0.54161558    -0.28400
H1335       H  0.08280971  0.76679596  0.59465291     0.15800
H1336       H  0.10480208  0.75546859  0.50177031     0.16400
C1337       C  0.56722822  0.56563228  0.64519069    -0.13200
C1338       C  0.56606776  0.56665063  0.59404655    -0.28400
H1339       H  0.55847764  0.57307314  0.66895223     0.15800
H1340       H  0.57373679  0.55815035  0.57018660     0.16400
C1341       C  0.46267611  0.33727796  0.51926900    -0.13200
C1342       C  0.44092379  0.32578289  0.54311348    -0.28400
H1343       H  0.47353197  0.32853520  0.51605868     0.15800
H1344       H  0.42953087  0.33398825  0.54346398     0.16400
C1345       C  0.52909451  0.46667537  0.86549102    -0.13200
C1346       C  0.54531237  0.46484126  0.83600483    -0.28400
H1347       H  0.52759570  0.48293371  0.86347439     0.15800
H1348       H  0.54720118  0.44883037  0.83859727     0.16400
C1349       C  0.55254461  0.46490589  0.59237267    -0.13200
C1350       C  0.52842526  0.45545389  0.58469106    -0.28400
H1351       H  0.56319420  0.46057033  0.56643046     0.15800
H1352       H  0.51804755  0.46043678  0.60997934     0.16400
C1353       C  0.33901528  0.44976694  0.73071000    -0.13200
C1354       C  0.33362008  0.45178692  0.68231130    -0.28400
H1355       H  0.32446403  0.43943949  0.75785425     0.15800
H1356       H  0.34803844  0.46354035  0.65610006     0.16400
C1357       C  0.47866504  0.54355585  0.90404063    -0.13200
C1358       C  0.45514419  0.53663482  0.89567915    -0.28400
H1359       H  0.48750096  0.53601841  0.88083183     0.15800
H1360       H  0.44607114  0.54378759  0.91926130     0.16400
C1361       C  0.46362145  0.54655777  0.64687475    -0.13200
C1362       C  0.45854913  0.52368722  0.65652919    -0.28400
H1363       H  0.45615150  0.55528693  0.67061316     0.15800
H1364       H  0.46666005  0.51539559  0.63333884     0.16400
C1365       C  0.42453850  0.42331388  0.90099686    -0.13200
C1366       C  0.42465545  0.42488534  0.84998154    -0.28400
H1367       H  0.41661435  0.43183903  0.92403333     0.15800
H1368       H  0.43348456  0.41727345  0.82697352     0.16400
C1369       C  0.88355193  0.55698206  0.54035005    -0.13200
C1370       C  0.89525214  0.54765694  0.56500173    -0.28400
H1371       H  0.88403633  0.55747485  0.49905225     0.15800
H1372       H  0.89666408  0.54903812  0.60618980     0.16400
C1373       C  0.99314858  0.77394171  0.86230634    -0.13200
C1374       C  0.99813820  0.77877182  0.91222041    -0.28400
H1375       H  0.00799036  0.78012326  0.83502375     0.15800
H1376       H  0.98340973  0.77399536  0.93920896     0.16400
C1377       C  0.90190899  0.66353250  0.73163989    -0.13200
C1378       C  0.89835480  0.66160011  0.68095777    -0.28400
H1379       H  0.89503846  0.64715792  0.75442518     0.15800
H1380       H  0.90386034  0.67792039  0.65873206     0.16400
C1381       C  0.67118868  0.54610503  0.80702306    -0.13200
C1382       C  0.66172172  0.55686699  0.77875605    -0.28400
H1383       H  0.66075158  0.52647815  0.81280324     0.15800
H1384       H  0.67152160  0.57664720  0.77560355     0.16400
C1385       C  0.79400181  0.57547982  0.73158336    -0.13200
C1386       C  0.78674096  0.59174554  0.74052472    -0.28400
H1387       H  0.78829202  0.55996423  0.75649295     0.15800
H1388       H  0.79321617  0.60765704  0.71643086     0.16400
C1389       C  0.81462930  0.59545232  0.98338815    -0.13200
C1390       C  0.79088153  0.57796895  0.97847345    -0.28400
H1391       H  0.77811345  0.56183964  0.49126779     0.15800
H1392       H  0.78278653  0.56252791  0.00415236     0.16400
C1393       C  0.86623509  0.74743722  0.93536619    -0.13200
C1394       C  0.87244078  0.73028584  0.92837302    -0.28400
H1395       H  0.87364591  0.76332837  0.91096750     0.15800
H1396       H  0.86463119  0.71425646  0.95246184     0.16400
C1397       C  0.85721007  0.73043029  0.67705574    -0.13200
C1398       C  0.88038214  0.74766331  0.68847632    -0.28400
H1399       H  0.84808041  0.71361161  0.69866566     0.15800
H1400       H  0.88984133  0.76434365  0.66649571     0.16400
C1401       C  0.76271627  0.67100167  0.95554818    -0.13200
C1402       C  0.75323599  0.64783133  0.97090402    -0.28400
H1403       H  0.76337695  0.67478661  0.91520420     0.15800
H1404       H  0.75199456  0.64391679  0.01126800     0.16400
C1405       C  0.56469862  0.99871753  0.85357905    -0.13200
C1406       C  0.56667711  0.00003585  0.90474898    -0.28400
H1407       H  0.57145557  0.01532322  0.83163381     0.15800
H1408       H  0.55884172  0.98329353  0.92658588     0.16400
C1409       C  0.45542804  0.11088091  0.78034681    -0.13200
C1410       C  0.43292063  0.10104310  0.80028487    -0.28400
H1411       H  0.46650267  0.13052243  0.77528445     0.15800
H1412       H  0.42128895  0.08128267  0.80153411     0.16400
C1413       C  0.54719515  0.08181269  0.87544924    -0.13200
C1414       C  0.52349164  0.06509199  0.86813649    -0.28400
H1415       H  0.55693072  0.09667661  0.84881996     0.15800
H1416       H  0.51408783  0.04979556  0.89393836     0.16400
C1417       C  0.53934928  0.07396992  0.62331268    -0.13200
C1418       C  0.54365008  0.05577460  0.61180894    -0.28400
H1419       H  0.54879992  0.09111923  0.60286842     0.15800
H1420       H  0.53362960  0.03829332  0.63089720     0.16400
C1421       C  0.32164648  0.89450716  0.95607757    -0.13200
C1422       C  0.33428060  0.88502457  0.97669528    -0.28400
H1423       H  0.32911133  0.91414152  0.95768210     0.15800
H1424       H  0.32633745  0.86532781  0.97782453     0.16400
C1425       C  0.45297118  0.93247450  0.90379900    -0.13200
C1426       C  0.46087707  0.91647132  0.89944704    -0.28400
H1427       H  0.45902001  0.94731633  0.87688480     0.15800
H1428       H  0.45527604  0.90188140  0.92681787     0.16400
C1429       C  0.46126446  0.91293646  0.66499108    -0.13200
C1430       C  0.46553743  0.92937726  0.62910532    -0.28400
H1431       H  0.44348715  0.89642061  0.66786633     0.15800
H1432       H  0.48342193  0.94580971  0.62670949     0.16400
C1433       C  0.42939292  0.99828268  0.65767041    -0.13200
C1434       C  0.42716013  0.99714126  0.60668974    -0.28400
H1435       H  0.42191265  0.98150860  0.67933089     0.15800
H1436       H  0.43545997  0.01387837  0.58478226     0.16400
C1437       C  0.89874255  0.32639101  0.81838132    -0.13200
C1438       C  0.88889675  0.33853723  0.79713775    -0.28400
H1439       H  0.91832290  0.33374947  0.81598135     0.15800
H1440       H  0.86918244  0.33042099  0.79654417     0.16400
C1441       C  0.99026663  0.21206150  0.63927512    -0.13200
C1442       C  0.01100923  0.22606388  0.61374665    -0.28400
H1443       H  0.99073418  0.21072579  0.68035214     0.15800
H1444       H  0.01026629  0.22918641  0.57343546     0.16400
C1445       C  0.91143133  0.22354256  0.95180813    -0.13200
C1446       C  0.90087409  0.23606850  0.96824770    -0.28400
H1447       H  0.89232183  0.23504897  0.51988356     0.15800
H1448       H  0.89945915  0.23843525  0.00884974     0.16400
C1449       C  0.87512608  0.11989684  0.67815337    -0.13200
C1450       C  0.86161311  0.12318504  0.71294683    -0.28400
H1451       H  0.87437854  0.10247529  0.67496056     0.15800
H1452       H  0.86290930  0.14087734  0.71601351     0.16400
C1453       C  0.84805976  0.10925440  0.94405206    -0.13200
C1454       C  0.87138250  0.11458366  0.94813980    -0.28400
H1455       H  0.84113770  0.11817079  0.96880406     0.15800
H1456       H  0.87852035  0.10623499  0.92236465     0.16400
C1457       C  0.67318562  0.12060971  0.56761671    -0.13200
C1458       C  0.66201995  0.09954727  0.54071709    -0.28400
H1459       H  0.66416409  0.13104757  0.57382750     0.15800
H1460       H  0.67074955  0.08869288  0.53719671     0.16400
C1461       C  0.80295031  0.19847222  0.72669745    -0.13200
C1462       C  0.80171888  0.21451549  0.75794494    -0.28400
H1463       H  0.81926794  0.19704173  0.72651748     0.15800
H1464       H  0.78555744  0.21620874  0.75822517     0.16400
C1465       C  0.79155954  0.18475914  0.98883815    -0.13200
C1466       C  0.79929947  0.20880029  0.98653968    -0.28400
H1467       H  0.79863975  0.17663779  0.96230282     0.15800
H1468       H  0.79286933  0.21717440  0.01396536     0.16400
C1469       C  0.74834079  0.09296741  0.72522741    -0.13200
C1470       C  0.75910211  0.08027078  0.71160341    -0.28400
H1471       H  0.74576928  0.09536540  0.76529373     0.15800
H1472       H  0.76154433  0.07772609  0.67154262     0.16400
C1473       C  0.55292319  0.66814425  0.92974413    -0.13200
C1474       C  0.54912201  0.66265440  0.97957294    -0.28400
H1475       H  0.54659652  0.65357713  0.90152329     0.15800
H1476       H  0.55614277  0.67546472  0.50615259     0.16400
C1477       C  0.76524719  0.76553801  0.62355789    -0.13200
C1478       C  0.78767689  0.77674832  0.60285099    -0.28400
H1479       H  0.75433666  0.74570263  0.62377028     0.15800
H1480       H  0.79788251  0.79651056  0.59915809     0.16400
C1481       C  0.66116449  0.75955147  0.74658609    -0.13200
C1482       C  0.66015267  0.75880660  0.79776465    -0.28400
H1483       H  0.64449840  0.75264230  0.72458054     0.15800
H1484       H  0.67692218  0.76664895  0.81971393     0.16400
C1485       C  0.55093453  0.88945065  0.73375345    -0.13200
C1486       C  0.55372667  0.88552664  0.68437244    -0.28400
H1487       H  0.55812062  0.88291182  0.76306560     0.15800
H1488       H  0.54529525  0.89067083  0.65499867     0.16400
C1489       C  0.59345504  0.79874138  0.53448788    -0.13200
C1490       C  0.57559044  0.78541012  0.50116063    -0.28400
H1491       H  0.60972863  0.79723103  0.53439672     0.15800
H1492       H  0.55903256  0.78639580  0.50118439     0.16400
C1493       C  0.59484897  0.81083468  0.76959633    -0.13200
C1494       C  0.57865120  0.78669477  0.77255391    -0.28400
H1495       H  0.60993142  0.81945068  0.79632997     0.15800
H1496       H  0.56371431  0.77784544  0.74556499     0.16400
C1497       C  0.77645358  0.98225194  0.88167121    -0.13200
C1498       C  0.76686805  0.99427183  0.85875244    -0.28400
H1499       H  0.79593426  0.99128026  0.88904974     0.15800
H1500       H  0.74716172  0.98563023  0.85530926     0.16400
C1501       C  0.72241458  0.85702814  0.53292724    -0.13200
C1502       C  0.74127287  0.85653424  0.55363851    -0.28400
H1503       H  0.70392334  0.84198254  0.53903313     0.15800
H1504       H  0.75978655  0.87145884  0.54720984     0.16400
C1505       C  0.74542181  0.85947805  0.78920358    -0.13200
C1506       C  0.73081981  0.86907802  0.79143892    -0.28400
H1507       H  0.75830376  0.86281630  0.81951312     0.15800
H1508       H  0.71735166  0.86493526  0.76192126     0.16400
C1509       C  0.66697901  0.90965080  0.51956279    -0.13200
C1510       C  0.66608902  0.90820612  0.57065808    -0.28400
H1511       H  0.65012864  0.90251590  0.49810661     0.15800
H1512       H  0.68280546  0.91442515  0.59211268     0.16400
loop_ 
_geom_bond_atom_site_label_1 
_geom_bond_atom_site_label_2 
_geom_bond_distance 
_geom_bond_site_symmetry_2 
_ccdc_geom_bond_type 
O1            C4   1.270       .  A
O1           Cd6   2.463       .  S
C2           O11   1.269       .  A
C2            O7   1.270       .  A
C2         C1509   1.476       .  S
O3            C9   1.275       .  A
O3         Cd762   2.471       .  S
C4           O12   1.264       .  A
C4          C750   1.469       .  S
C5           O10   1.270       .  A
C5            O8   1.266       .  A
C5          C741   1.481       .  S
Cd6          O13   2.395       .  S
Cd6          O12   2.426       .  S
Cd6          O11   2.458       .  S
Cd6           O7   2.451       .  S
Cd6          O10   2.501       .  S
Cd6           O8   2.423       .  S
Cd6         O759   2.466       .  S
C9          O769   1.264       .  A
C9          C745   1.470   1_556  S
O13         C765   1.263       .  A
O14          C17   1.268       .  A
O14         Cd19   2.444       .  S
C15          O24   1.264       .  A
C15          O20   1.267       .  A
C15         C754   1.478       .  S
O16          C22   1.271       .  A
O16         Cd19   2.493       .  S
C17          O25   1.267       .  A
C17         C737   1.471       .  S
C18          O23   1.263       .  A
C18          O21   1.267       .  A
C18         C730   1.475       .  S
Cd19         O26   2.407       .  S
Cd19         O25   2.463       .  S
Cd19         O24   2.455       .  S
Cd19         O20   2.485       .  S
Cd19         O23   2.447       .  S
Cd19         O21   2.503       .  S
C22          O26   1.264       .  A
C22         C733   1.475       .  S
O27          C30   1.271       .  A
O27         Cd32   2.468       .  S
C28          O37   1.262       .  A
C28          O33   1.271       .  A
C28         C746   1.471       .  S
O29          C35   1.273       .  A
O29         Cd32   2.489       .  S
C30          O38   1.268       .  A
C30         C725   1.478       .  S
C31          O36   1.267       .  A
C31          O34   1.262       .  A
C31         C721   1.471       .  S
Cd32         O39   2.396       .  S
Cd32         O38   2.451       .  S
Cd32         O37   2.430       .  S
Cd32         O33   2.470       .  S
Cd32         O36   2.489       .  S
Cd32         O34   2.454       .  S
C35          O39   1.263       .  A
C35         C749   1.473       .  S
O40          C43   1.269       .  A
O40         Cd45   2.485       .  S
C41          O50   1.266       .  A
C41          O46   1.271       .  A
C41        C1490   1.480       .  S
O42          C48   1.273       .  A
O42         Cd45   2.500       .  S
C43          O51   1.265       .  A
C43         C726   1.479       .  S
C44          O49   1.269       .  A
C44          O47   1.265       .  A
C44         C717   1.480       .  S
Cd45         O52   2.395       .  S
Cd45         O51   2.460       .  S
Cd45         O50   2.471       .  S
Cd45         O46   2.458       .  S
Cd45         O49   2.495       .  S
Cd45         O47   2.463       .  S
C48          O52   1.264       .  A
C48         C738   1.477       .  S
O53          C56   1.272       .  A
O53         Cd58   2.438       .  S
C54          O63   1.268       .  A
C54          O59   1.273       .  A
C54         C713   1.473       .  S
O55          C61   1.279       .  A
O55         Cd58   2.491       .  S
C56          O64   1.268       .  A
C56        C1465   1.469   1_554  S
C57          O62   1.274       .  A
C57          O60   1.265       .  A
C57         C701   1.476       .  S
Cd58         O65   2.370       .  S
Cd58         O64   2.424       .  S
Cd58         O63   2.433       .  S
Cd58         O59   2.445       .  S
Cd58         O62   2.494       .  S
Cd58         O60   2.423       .  S
C61          O65   1.264       .  A
C61         C705   1.469       .  S
O66          C69   1.269       .  A
O66         Cd71   2.446       .  S
C67          O76   1.266       .  A
C67          O72   1.272       .  A
C67         C714   1.471       .  S
O68          C74   1.274       .  A
O68         Cd71   2.486       .  S
C69          O77   1.265       .  A
C69         C697   1.464       .  S
C70          O75   1.271       .  A
C70          O73   1.262       .  A
C70         C742   1.472       .  S
Cd71         O78   2.407       .  S
Cd71         O77   2.420       .  S
Cd71         O76   2.428       .  S
Cd71         O72   2.457       .  S
Cd71         O75   2.511       .  S
Cd71         O73   2.420       .  S
C74          O78   1.265       .  A
C74         C694   1.477       .  S
O79          C82   1.270   1_554  A
O79         Cd84   2.491       .  S
C80          O89   1.265       .  A
C80          O85   1.270       .  A
C80         C693   1.473       .  S
O81         C843   1.272       .  A
O81         Cd84   2.476   1_556  S
C82         O846   1.266       .  A
C82        C1445   1.483       .  S
C83          O88   1.269       .  A
C83          O86   1.266       .  A
C83         C685   1.485       .  S
Cd84         O91   2.414       .  S
Cd84         O89   2.446       .  S
Cd84         O85   2.463       .  S
Cd84         O88   2.505       .  S
Cd84         O86   2.455       .  S
Cd84        O846   2.474   1_554  S
C87         O837   1.273       .  A
C87         O847   1.264       .  A
C87         C698   1.468       .  S
O90         C838   1.265       .  A
O90        Cd840   2.460       .  S
O91         C843   1.264   1_554  A
O92          C95   1.273       .  A
O92         Cd97   2.450       .  S
C93         O102   1.265       .  A
C93          O98   1.269       .  A
C93         C690   1.479       .  S
O94         C100   1.271       .  A
O94         Cd97   2.498       .  S
C95         O103   1.265       .  A
C95         C706   1.475       .  S
C96         O101   1.274       .  A
C96          O99   1.265       .  A
C96         C710   1.471       .  S
Cd97        O104   2.434       .  S
Cd97        O103   2.445       .  S
Cd97        O102   2.463       .  S
Cd97         O98   2.480       .  S
Cd97        O101   2.477       .  S
Cd97         O99   2.380       .  S
C100        O104   1.263       .  A
C100        C681   1.475       .  S
O105        C108   1.268       .  A
O105       Cd110   2.472       .  S
C106        O115   1.268       .  A
C106        O111   1.269       .  A
C106        C669   1.469       .  S
O107        C113   1.271       .  A
O107       Cd110   2.483       .  S
C108        O116   1.267       .  A
C108        C678   1.480       .  S
C109        O112   1.264       .  A
C109        O870   1.269       .  A
C109        C666   1.475       .  S
Cd110       O117   2.413       .  S
Cd110       O116   2.471       .  S
Cd110       O114   2.497       .  S
Cd110       O871   2.447   1_554  S
Cd110       O867   2.471   1_554  S
Cd110       O868   2.476   1_554  S
O111       Cd866   2.436       .  S
O112       Cd866   2.441       .  S
C113        O117   1.264       .  A
C113        C674   1.474       .  S
O114        C865   1.266   1_554  A
O115       Cd866   2.450       .  S
O118        C121   1.268       .  A
O118       Cd123   2.485       .  S
C119        O128   1.264       .  A
C119        O124   1.267       .  A
C119        C658   1.477       .  S
O120        C126   1.270       .  A
O120       Cd123   2.490       .  S
C121        O129   1.266       .  A
C121        C677   1.481   1_545  S
C122        O127   1.266       .  A
C122        O125   1.265       .  A
C122        C653   1.484       .  S
Cd123       O130   2.436       .  S
Cd123       O129   2.474       .  S
Cd123       O128   2.474       .  S
Cd123       O124   2.477       .  S
Cd123       O127   2.501       .  S
Cd123       O125   2.478       .  S
C126        O130   1.264       .  A
C126        C661   1.477       .  S
O131        C134   1.270       .  A
O131       Cd136   2.454       .  S
C132        O141   1.262       .  A
C132        O137   1.270       .  A
C132        C649   1.476       .  S
O133        C139   1.271       .  A
O133       Cd136   2.489       .  S
C134        O142   1.266       .  A
C134        C673   1.471       .  S
C135        O140   1.267       .  A
C135        O138   1.265       .  A
C135        C729   1.473       .  S
Cd136       O143   2.400       .  S
Cd136       O142   2.440       .  S
Cd136       O141   2.439       .  S
Cd136       O137   2.501       .  S
Cd136       O140   2.469       .  S
Cd136       O138   2.462       .  S
C139        O143   1.265       .  A
C139        C670   1.474       .  S
O144        C147   1.267       .  A
O144       Cd905   2.479   1_554  S
C145        O154   1.266       .  A
C145        O150   1.272       .  A
C145        C650   1.478       .  S
O146        C152   1.273       .  A
O146       Cd149   2.496       .  S
C147        O155   1.264       .  A
C147        C662   1.475       .  S
C148        O151   1.266       .  A
C148        O909   1.265       .  A
C148        C702   1.480       .  S
Cd149       O156   2.420       .  S
Cd149       O154   2.449       .  S
Cd149       O150   2.468       .  S
Cd149       O153   2.514       .  S
Cd149       O900   2.483       .  S
Cd149       O911   2.407       .  S
Cd149       O907   2.440       .  S
O151       Cd905   2.471   1_554  S
C152        O156   1.264       .  A
C152        C657   1.480       .  S
O153        C904   1.269       .  A
O155       Cd905   2.458   1_554  S
O157        C160   1.271   1_554  A
O157       Cd162   2.490       .  S
C158        O167   1.264       .  A
C158        O163   1.270       .  A
C158        C641   1.472       .  S
O159        C165   1.275       .  A
O159       Cd918   2.486       .  S
C160        O924   1.265       .  A
C160       C1401   1.480       .  S
C161        O166   1.268       .  A
C161        O164   1.266       .  A
C161        C722   1.476       .  S
Cd162       O169   2.384       .  S
Cd162       O167   2.443       .  S
Cd162       O163   2.464       .  S
Cd162       O166   2.476       .  S
Cd162       O164   2.444       .  S
Cd162       O915   2.477   1_554  S
Cd162       O924   2.457   1_554  S
C165        O925   1.263       .  A
C165        C637   1.469       .  S
O168        C916   1.265       .  A
O168       Cd918   2.450       .  S
O169        C921   1.265   1_554  A
O170        C173   1.272       .  A
O170       Cd175   2.481       .  S
C171        O180   1.267       .  A
C171        O176   1.271       .  A
C171        C630   1.469       .  S
O172        C178   1.275       .  A
O172       Cd175   2.486       .  S
C173        O181   1.264       .  A
C173        C646   1.476       .  S
C174        O179   1.270       .  A
C174        O177   1.266       .  A
C174        C625   1.471       .  S
Cd175       O182   2.381       .  S
Cd175       O181   2.430       .  S
Cd175       O180   2.434       .  S
Cd175       O176   2.442       .  S
Cd175       O179   2.469       .  S
Cd175       O177   2.432       .  S
C178        O182   1.263       .  A
C178        C634   1.467       .  S
O183        C186   1.273       .  A
O183       Cd188   2.445       .  S
C184        O193   1.264       .  A
C184        O189   1.272       .  A
C184        C621   1.481       .  S
O185        C191   1.274       .  A
O185       Cd188   2.487       .  S
C186        O194   1.266       .  A
C186        C638   1.474       .  S
C187        O192   1.271       .  A
C187        O190   1.266       .  A
C187        C617   1.478   1_655  S
Cd188       O195   2.396       .  S
Cd188       O194   2.447       .  S
Cd188       O193   2.443       .  S
Cd188       O189   2.502       .  S
Cd188       O192   2.495       .  S
Cd188       O190   2.442       .  S
C191        O195   1.265       .  A
C191        C642   1.475       .  S
O196        C199   1.273       .  A
O196       Cd201   2.489       .  S
C197        O206   1.264       .  A
C197        O202   1.271       .  A
C197       C1389   1.478   1_554  S
O198        C204   1.269       .  A
O198       Cd201   2.515       .  S
C199        O207   1.266       .  A
C199        C622   1.482       .  S
C200        O205   1.274       .  A
C200        O203   1.263       .  A
C200        C629   1.474       .  S
Cd201       O208   2.461       .  S
Cd201       O207   2.454       .  S
Cd201       O206   2.452       .  S
Cd201       O202   2.480       .  S
Cd201       O205   2.495       .  S
Cd201       O203   2.386       .  S
C204        O208   1.263       .  A
C204        C613   1.480       .  S
O209        C212   1.272       .  A
O209       Cd214   2.457       .  S
C210        O219   1.267       .  A
C210        O215   1.273       .  A
C210        C610   1.481       .  S
O211        C217   1.277       .  A
O211       Cd214   2.509       .  S
C212        O220   1.266       .  A
C212        C606   1.470       .  S
C213        O218   1.272       .  A
C213        O216   1.265       .  A
C213        C597   1.480       .  S
Cd214       O221   2.389       .  S
Cd214       O220   2.417       .  S
Cd214       O219   2.451       .  S
Cd214       O215   2.480       .  S
Cd214       O218   2.509       .  S
Cd214       O216   2.445       .  S
C217        O221   1.263       .  A
C217        C602   1.474       .  S
O222        C225   1.268       .  A
O222       Cd983   2.454   1_554  S
C223        O232   1.265       .  A
C223        O228   1.270       .  A
C223        C609   1.482       .  S
O224        C230   1.272       .  A
O224       Cd227   2.492       .  S
C225        O233   1.265       .  A
C225        C594   1.469       .  S
C226        O229   1.265   1_556  A
C226        O987   1.270       .  A
C226        C585   1.478   1_556  S
Cd227       O234   2.415       .  S
Cd227       O232   2.467       .  S
Cd227       O228   2.491       .  S
Cd227       O231   2.505       .  S
Cd227       O978   2.461       .  S
Cd227       O989   2.452       .  S
Cd227       O985   2.457       .  S
O229       Cd983   2.433   1_554  S
C230        O234   1.264       .  A
C230        C589   1.477       .  S
O231        C982   1.269       .  A
O233       Cd983   2.438   1_554  S
O235        C238   1.270       .  A
O235       Cd240   2.487       .  S
C236        O245   1.265       .  A
C236        O241   1.272       .  A
C236        C601   1.479       .  S
O237        C243   1.273       .  A
O237       Cd240   2.490       .  S
C238        O246   1.263       .  A
C238        C582   1.479       .  S
C239        O242   1.265       .  A
C239       O1000   1.267       .  A
C239        C718   1.479       .  S
Cd240       O247   2.404       .  S
Cd240       O246   2.452       .  S
Cd240       O244   2.493       .  S
Cd240      O1001   2.441   1_554  S
Cd240       O997   2.445   1_554  S
Cd240       O998   2.461   1_554  S
O241       Cd996   2.469       .  S
O242       Cd996   2.478       .  S
C243        O247   1.263       .  A
C243        C605   1.473       .  S
O244        C995   1.269   1_554  A
O245       Cd996   2.463       .  S
O248        C251   1.271       .  A
O248       Cd253   2.496       .  S
C249        O258   1.267       .  A
C249        O254   1.272       .  A
C249        C590   1.474       .  S
O250        C256   1.272       .  A
O250       Cd253   2.482       .  S
C251        O259   1.263       .  A
C251        C581   1.478       .  S
C252        O257   1.268       .  A
C252        O255   1.264       .  A
C252        C626   1.472       .  S
Cd253       O260   2.395       .  S
Cd253       O259   2.443       .  S
Cd253       O258   2.439       .  S
Cd253       O254   2.460       .  S
Cd253       O257   2.488       .  S
Cd253       O255   2.444       .  S
C256        O260   1.264       .  A
C256        C593   1.472       .  S
O261        C264   1.270       .  A
O261       Cd266   2.462       .  S
C262        O271   1.267       .  A
C262        O267   1.273       .  A
C262        C578   1.479       .  S
O263        C269   1.274       .  A
O263       Cd266   2.493       .  S
C264        O272   1.265       .  A
C264        C574   1.472       .  S
C265        O270   1.270       .  A
C265        O268   1.263       .  A
C265        C565   1.476       .  S
Cd266       O273   2.399       .  S
Cd266       O272   2.442       .  S
Cd266       O271   2.445       .  S
Cd266       O267   2.473       .  S
Cd266       O270   2.511       .  S
Cd266       O268   2.442       .  S
C269        O273   1.264       .  A
C269        C569   1.476       .  S
O274        C277   1.270       .  A
O274       Cd279   2.442       .  S
C275        O284   1.262       .  A
C275        O280   1.269       .  A
C275       C1333   1.481       .  S
O276       C1038   1.270       .  A
O276       Cd279   2.497       .  S
C277        O285   1.267       .  A
C277        C562   1.468       .  S
C278        O283   1.266       .  A
C278        O281   1.263       .  A
C278        C618   1.476       .  S
Cd279       O286   2.388       .  S
Cd279       O285   2.441       .  S
Cd279       O284   2.457       .  S
Cd279       O280   2.509       .  S
Cd279       O283   2.484       .  S
Cd279       O281   2.479       .  S
C282       O1032   1.273       .  A
C282       O1042   1.264       .  A
C282        C557   1.478       .  S
O286       C1038   1.263       .  A
O287        C290   1.268       .  A
O287       Cd292   2.440       .  S
C288        O297   1.264       .  A
C288        O293   1.267       .  A
C288        C554   1.475       .  S
O289        C295   1.263       .  A
O289       Cd292   2.462       .  S
C290        O298   1.267       .  A
C290       C1326   1.469       .  S
C291        O296   1.271       .  A
C291        O294   1.263       .  A
C291        C573   1.475       .  S
Cd292       O299   2.483       .  S
Cd292       O298   2.454       .  S
Cd292       O297   2.456       .  S
Cd292       O293   2.475       .  S
Cd292       O296   2.491       .  S
Cd292       O294   2.414       .  S
C295        O299   1.266       .  A
C295        C665   1.474       .  S
O300        C303   1.266       .  A
O300       Cd305   2.482       .  S
C301        O310   1.267       .  A
C301        O306   1.268       .  A
C301        C558   1.471       .  S
O302        C308   1.270       .  A
O302       Cd305   2.494       .  S
C303        O311   1.264       .  A
C303        C553   1.476       .  S
C304        O309   1.263       .  A
C304        O307   1.267       .  A
C304        C550   1.475       .  S
Cd305       O312   2.402       .  S
Cd305       O311   2.463       .  S
Cd305       O310   2.472       .  S
Cd305       O306   2.434       .  S
Cd305       O309   2.457       .  S
Cd305       O307   2.481       .  S
C308        O312   1.263       .  A
C308        C561   1.473       .  S
O313        C316   1.271       .  A
O313       Cd318   2.477       .  S
C314        O323   1.267       .  A
C314        O319   1.271       .  A
C314       C1294   1.468       .  S
O315        C321   1.273       .  A
O315       Cd318   2.485       .  S
C316        O324   1.264       .  A
C316        C545   1.478       .  S
C317        O322   1.272       .  A
C317        O320   1.263       .  A
C317        C534   1.472       .  S
Cd318       O325   2.398       .  S
Cd318       O324   2.450       .  S
Cd318       O323   2.438       .  S
Cd318       O319   2.443       .  S
Cd318       O322   2.481       .  S
Cd318       O320   2.430       .  S
C321        O325   1.265       .  A
C321        C541   1.474       .  S
O326        C329   1.273       .  A
O326       Cd331   2.485       .  S
C327        O336   1.266       .  A
C327        O332   1.270       .  A
C327        C526   1.472       .  S
O328        C334   1.275       .  A
O328       Cd331   2.493       .  S
C329        O337   1.266       .  A
C329        C546   1.477       .  S
C330        O335   1.271       .  A
C330        O333   1.263       .  A
C330        C686   1.479       .  S
Cd331       O338   2.400       .  S
Cd331       O337   2.436       .  S
Cd331       O336   2.447       .  S
Cd331       O332   2.455       .  S
Cd331       O335   2.525       .  S
Cd331       O333   2.434       .  S
C334        O338   1.264       .  A
C334        C530   1.476       .  S
O339        C342   1.269       .  A
O339       Cd344   2.457       .  S
C340        O349   1.265       .  A
C340        O345   1.271       .  A
C340        C521   1.480       .  S
O341        C347   1.274       .  A
O341       Cd344   2.482       .  S
C342        O350   1.265       .  A
C342        C542   1.470       .  S
C343        O348   1.269       .  A
C343        O346   1.266       .  A
C343        C598   1.485       .  S
Cd344       O351   2.403       .  S
Cd344       O350   2.440       .  S
Cd344       O349   2.454       .  S
Cd344       O345   2.488       .  S
Cd344       O348   2.503       .  S
Cd344       O346   2.459       .  S
C347        O351   1.265       .  A
C347        C537   1.474       .  S
O352        C355   1.271       .  A
O352       Cd357   2.473       .  S
C353        O362   1.266       .  A
C353        O358   1.273       .  A
C353       C1278   1.480       .  S
O354       C1116   1.273       .  A
O354       Cd357   2.482       .  S
C355        O363   1.264       .  A
C355        C529   1.473       .  S
C356        O361   1.269       .  A
C356        O359   1.264       .  A
C356        C517   1.476       .  S
Cd357       O364   2.413       .  S
Cd357       O363   2.436       .  S
Cd357       O362   2.442       .  S
Cd357       O358   2.490       .  S
Cd357       O361   2.499       .  S
Cd357       O359   2.449       .  S
C360       O1110   1.272       .  A
C360       O1120   1.263       .  A
C360        C525   1.476   1_556  S
O364       C1116   1.265       .  A
O365        C368   1.268       .  A
O365       Cd370   2.451       .  S
C366        O375   1.266       .  A
C366        O371   1.268       .  A
C366        C513   1.482       .  S
O367        C373   1.272       .  A
O367       Cd370   2.478       .  S
C368        O376   1.265       .  A
C368        C510   1.471       .  S
C369        O374   1.265       .  A
C369        O372   1.268       .  A
C369        C518   1.481       .  S
Cd370       O377   2.394       .  S
Cd370       O376   2.463       .  S
Cd370       O375   2.481       .  S
Cd370       O371   2.483       .  S
Cd370       O374   2.457       .  S
Cd370       O372   2.490       .  S
C373        O377   1.264       .  A
C373        C505   1.471       .  S
O378        C381   1.273       .  A
O378       Cd383   2.457       .  S
C379        O388   1.268       .  A
C379        O384   1.272       .  A
C379        C514   1.482       .  S
O380        C386   1.275       .  A
O380       Cd383   2.490       .  S
C381        O389   1.263       .  A
C381       C1257   1.472   1_554  S
C382        O387   1.270       .  A
C382        O385   1.264       .  A
C382        C586   1.471       .  S
Cd383       O390   2.382       .  S
Cd383       O389   2.431       .  S
Cd383       O388   2.458       .  S
Cd383       O384   2.476       .  S
Cd383       O387   2.489       .  S
Cd383       O385   2.436       .  S
C386        O390   1.264       .  A
C386        C498   1.474       .  S
O391        C394   1.268       .  A
O391       Cd396   2.481       .  S
C392        O401   1.266       .  A
C392        O397   1.269       .  A
C392        C506   1.467       .  S
O393        C399   1.272       .  A
O393      Cd1152   2.510       .  S
C394       O1158   1.265   1_554  A
C394       C1249   1.477   1_554  S
C395        O400   1.264       .  A
C395        O398   1.268       .  A
C395        C549   1.476   1_545  S
Cd396       O403   2.406       .  S
Cd396       O401   2.434       .  S
Cd396       O397   2.447       .  S
Cd396       O400   2.451       .  S
Cd396       O398   2.492       .  S
Cd396      O1149   2.501   1_554  S
Cd396      O1158   2.441   1_554  S
C399       O1159   1.263       .  A
C399        C509   1.478       .  S
O402       C1150   1.268       .  A
O402      Cd1152   2.462       .  S
O403       C1155   1.264   1_554  A
O404        C407   1.271       .  A
O404       Cd409   2.470       .  S
C405        O414   1.264       .  A
C405        O410   1.269       .  A
C405        C497   1.469       .  S
O406        C412   1.275       .  A
O406       Cd409   2.486       .  S
C407        O415   1.268       .  A
C407        C494   1.478       .  S
C408        O413   1.270       .  A
C408        O411   1.264       .  A
C408        C654   1.479       .  S
Cd409       O416   2.397       .  S
Cd409       O415   2.442       .  S
Cd409       O414   2.439       .  S
Cd409       O410   2.459       .  S
Cd409       O413   2.514       .  S
Cd409       O411   2.444       .  S
C412        O416   1.262       .  A
C412        C502   1.469       .  S
O417        C420   1.271       .  A
O417       Cd422   2.436       .  S
C418        O427   1.264       .  A
C418        O423   1.271       .  A
C418        C489   1.477       .  S
O419        C425   1.272       .  A
O419       Cd422   2.496       .  S
C420        O428   1.268       .  A
C420        C481   1.468       .  S
C421        O426   1.274       .  A
C421        O424   1.265       .  A
C421        C485   1.478       .  S
Cd422       O429   2.440       .  S
Cd422       O428   2.432       .  S
Cd422       O427   2.443       .  S
Cd422       O423   2.482       .  S
Cd422       O426   2.492       .  S
Cd422       O424   2.396       .  S
C425        O429   1.263       .  A
C425        C682   1.475       .  S
O430        C433   1.273       .  A
O430       Cd435   2.471       .  S
C431        O440   1.268       .  A
C431        O436   1.271       .  A
C431        C474   1.470       .  S
O432        C438   1.275       .  A
O432       Cd435   2.488       .  S
C433        O441   1.267       .  A
C433        C490   1.478       .  S
C434        O437   1.263       .  A
C434       O1195   1.271       .  A
C434        C533   1.474       .  S
Cd435       O442   2.404       .  S
Cd435       O441   2.447       .  S
Cd435       O439   2.510       .  S
Cd435      O1196   2.428   1_554  S
Cd435      O1192   2.468   1_554  S
Cd435      O1193   2.437       .  S
O436      Cd1191   2.444       .  S
O437      Cd1191   2.447       .  S
C438        O442   1.265       .  A
C438        C477   1.475       .  S
O439       C1190   1.271   1_554  A
O440      Cd1191   2.424       .  S
O443        C446   1.267       .  A
O443      Cd1204   2.465   1_554  S
C444        O453   1.264       .  A
C444        O449   1.270       .  A
C444        C469   1.478       .  S
O445        C451   1.273       .  A
O445       Cd448   2.494       .  S
C446        O454   1.265       .  A
C446        C486   1.474       .  S
C447        O450   1.266   1_554  A
C447       O1208   1.266       .  A
C447        C614   1.484       .  S
Cd448       O455   2.391       .  S
Cd448       O453   2.450       .  S
Cd448       O449   2.482       .  S
Cd448       O452   2.487       .  S
Cd448      O1199   2.444       .  S
Cd448      O1210   2.422       .  S
Cd448      O1206   2.441       .  S
O450      Cd1204   2.490       .  S
C451        O455   1.264       .  A
C451        C482   1.474       .  S
O452       C1203   1.271       .  A
O454      Cd1204   2.469   1_554  S
O456        C459   1.271       .  A
O456       Cd461   2.465       .  S
C457        O466   1.265       .  A
C457        O462   1.272       .  A
C457        C470   1.478       .  S
O458        C464   1.272       .  A
O458       Cd461   2.476       .  S
C459        O467   1.265       .  A
C459        C478   1.472       .  S
C460        O465   1.270       .  A
C460        O463   1.267       .  A
C460        C566   1.481       .  S
Cd461       O468   2.409       .  S
Cd461       O467   2.430       .  S
Cd461       O466   2.447       .  S
Cd461       O462   2.482       .  S
Cd461       O465   2.485       .  S
Cd461       O463   2.444       .  S
C464        O468   1.265       .  A
C464        C473   1.472       .  S
C469        C470   1.341   1_655  D
C469        H471   1.086       .  S
C470        H472   1.086       .  S
C473        C474   1.347       .  D
C473        H475   1.086       .  S
C474        H476   1.087       .  S
C477        C478   1.350       .  D
C477        H479   1.086       .  S
C478        H480   1.087       .  S
C481        C482   1.347       .  D
C481        H483   1.087       .  S
C482        H484   1.086       .  S
C485        C486   1.349       .  D
C485        H487   1.086       .  S
C486        H488   1.087       .  S
C489        C490   1.341   1_655  D
C489        H491   1.087       .  S
C490        H492   1.086       .  S
C493       C1150   1.476       .  S
C493        C494   1.347       .  D
C493       H1251   1.087       .  S
C494        H496   1.087       .  S
H495       C1249   1.087   1_554  S
C497        C498   1.349       .  D
C497        H499   1.087       .  S
C498        H500   1.086       .  S
C501       C1137   1.472       .  S
C501        C502   1.335       .  D
C501       H1259   1.086       .  S
C502        H504   1.087       .  S
H503       C1257   1.086       .  S
C505        C506   1.346       .  D
C505        H507   1.086       .  S
C506        H508   1.087       .  S
C509        C510   1.349       .  D
C509        H511   1.086       .  S
C510        H512   1.087       .  S
C513        C514   1.349       .  D
C513        H515   1.087       .  S
C514        H516   1.087       .  S
C517        C518   1.345       .  D
C517        H519   1.086       .  S
C518        H520   1.086       .  S
C521        C522   1.341       .  D
C521        H523   1.086   1_554  S
C522       C1109   1.479   1_554  S
C522        H524   1.086       .  S
C525        C526   1.349       .  D
C525        H527   1.086       .  S
C526        H528   1.087       .  S
C529        C530   1.351       .  D
C529        H531   1.087       .  S
C530        H532   1.086       .  S
C533        C534   1.337       .  D
C533        H535   1.087       .  S
C534        H536   1.086       .  S
C537        C538   1.349       .  D
C537        H539   1.086   1_554  S
C538       C1070   1.472   1_554  S
C538        H540   1.087       .  S
C541        C542   1.348       .  D
C541        H543   1.086       .  S
C542        H544   1.087       .  S
C545        C546   1.340       .  D
C545        H547   1.086       .  S
C546        H548   1.086       .  S
C549        C550   1.347       .  D
C549        H551   1.086       .  S
C550        H552   1.086   1_565  S
C553        C554   1.347       .  D
C553        H555   1.087       .  S
C554        H556   1.087       .  S
C557        C558   1.348       .  D
C557       H1315   1.086       .  S
C558        H560   1.087       .  S
H559       C1313   1.086       .  S
C561        C562   1.346       .  D
C561        H563   1.086       .  S
C562        H564   1.087       .  S
C565        C566   1.345       .  D
C565        H567   1.087       .  S
C566        H568   1.087       .  S
C569        C570   1.350       .  D
C569        H571   1.086       .  S
C570       C1046   1.472   1_554  S
C570        H572   1.087       .  S
C573        C574   1.348       .  D
C573        H575   1.086       .  S
C574        H576   1.087       .  S
C577       C1031   1.479       .  S
C577        C578   1.341       .  D
C577        H579   1.087       .  S
C578        H580   1.086       .  S
C581        C582   1.340       .  D
C581        H583   1.087       .  S
C582        H584   1.086       .  S
C585        C586   1.344       .  D
C585        H587   1.087       .  S
C586        H588   1.087       .  S
C589        C590   1.349       .  D
C589        H591   1.086       .  S
C590        H592   1.087       .  S
C593        C594   1.347       .  D
C593        H595   1.086       .  S
C594        H596   1.087       .  S
C597        C598   1.347       .  D
C597        H599   1.087       .  S
C598        H600   1.087       .  S
C601        C602   1.338       .  D
C601        H603   1.086       .  S
C602        H604   1.087       .  S
C605        C606   1.349       .  D
C605        H607   1.086       .  S
C606        H608   1.087       .  S
C609        C610   1.343       .  D
C609        H611   1.086       .  S
C610        H612   1.086       .  S
C613        C614   1.345       .  D
C613        H615   1.086       .  S
C614        H616   1.086       .  S
C617        C618   1.347       .  D
C617        H619   1.086       .  S
C618        H620   1.087   1_455  S
C621        C622   1.342       .  D
C621        H623   1.086       .  S
C622        H624   1.086       .  S
C625        C626   1.345       .  D
C625        H627   1.087       .  S
C626        H628   1.087       .  S
C629        C630   1.349       .  D
C629        H631   1.086       .  S
C630        H632   1.087       .  S
C633        C953   1.473       .  S
C633        C634   1.337       .  D
C633       H1391   1.086       .  S
C634        H636   1.087       .  S
H635       C1389   1.086       .  S
C637        C638   1.337       .  D
C637        H639   1.087       .  S
C638        H640   1.086       .  S
C641        C642   1.349       .  D
C641        H643   1.087       .  S
C642        H644   1.086       .  S
C645        C916   1.478       .  S
C645        C646   1.340       .  D
C645        H647   1.086       .  S
C646        H648   1.087       .  S
C649        C650   1.340   1_565  D
C649        H651   1.087       .  S
C650        H652   1.086       .  S
C653        C654   1.345       .  D
C653        H655   1.087       .  S
C654        H656   1.087       .  S
C657        C658   1.350       .  D
C657        H659   1.086       .  S
C658        H660   1.087       .  S
C661        C662   1.348       .  D
C661        H663   1.086       .  S
C662        H664   1.086       .  S
C665        C666   1.346       .  D
C665        H667   1.087       .  S
C666        H668   1.087       .  S
C669        C670   1.346       .  D
C669        H671   1.087       .  S
C670        H672   1.086       .  S
C673        C674   1.347       .  D
C673        H675   1.087       .  S
C674        H676   1.086       .  S
C677        C678   1.348       .  D
C677        H679   1.087       .  S
C678        H680   1.087   1_565  S
C681        C682   1.337       .  D
C681        H683   1.087       .  S
C682        H684   1.086       .  S
C685        C686   1.346   1_655  D
C685        H687   1.086   1_655  S
C686        H688   1.086       .  S
C689        C838   1.480       .  S
C689        C690   1.350       .  D
C689       H1447   1.087       .  S
C690        H692   1.087       .  S
H691       C1445   1.086       .  S
C693        C694   1.349       .  D
C693        H695   1.087       .  S
C694        H696   1.086       .  S
C697        C698   1.346       .  D
C697        H699   1.087       .  S
C698        H700   1.086       .  S
C701        C702   1.342       .  D
C701        H703   1.087       .  S
C702        H704   1.087       .  S
C705        C706   1.336       .  D
C705        H707   1.087       .  S
C706        H708   1.086       .  S
C709        C812   1.467       .  S
C709        C710   1.347       .  D
C709        H711   1.087       .  S
C710        H712   1.086       .  S
C713        C714   1.339       .  D
C713        H715   1.087       .  S
C714        H716   1.087       .  S
C717        C718   1.348       .  D
C717        H719   1.087       .  S
C718       H1476   1.087       .  S
H720       C1474   1.086   1_554  S
C721        C722   1.344       .  D
C721        H723   1.087       .  S
C722        H724   1.087       .  S
C725        C726   1.349       .  D
C725        H727   1.087       .  S
C726        H728   1.087       .  S
C729        C730   1.345       .  D
C729        H731   1.087       .  S
C730        H732   1.087       .  S
C733        C734   1.347       .  D
C733        H735   1.086   1_554  S
C734        C797   1.470   1_554  S
C734        H736   1.087       .  S
C737        C738   1.348       .  D
C737        H739   1.087       .  S
C738        H740   1.086       .  S
C741        C742   1.344   1_565  D
C741        H743   1.086       .  S
C742        H744   1.087   1_545  S
C745        C746   1.336       .  D
C745        H747   1.087       .  S
C746        H748   1.086       .  S
C749        C750   1.349       .  D
C749        H751   1.086       .  S
C750        H752   1.086       .  S
C753        C758   1.477   1_554  S
C753        C754   1.348       .  D
C753        H755   1.087   1_554  S
C754        H756   1.087       .  S
O757        C760   1.269       .  A
O757       Cd762   2.444       .  S
C758        O767   1.268       .  A
C758        O763   1.269       .  A
O759        C765   1.275       .  A
C760        O768   1.265       .  A
C760       C1506   1.464       .  S
C761        O766   1.270       .  A
C761        O764   1.265       .  A
C761       C1497   1.479       .  S
Cd762       O769   2.406       .  S
Cd762       O768   2.424       .  S
Cd762       O767   2.457       .  S
Cd762       O763   2.461       .  S
Cd762       O766   2.503       .  S
Cd762       O764   2.413       .  S
C765       C1501   1.466       .  S
O770        C773   1.269       .  A
O770       Cd775   2.443       .  S
C771        O780   1.265       .  A
C771        O776   1.267       .  A
C771       C1510   1.477       .  S
O772        C778   1.273       .  A
O772       Cd775   2.519       .  S
C773        O781   1.267       .  A
C773       C1493   1.470       .  S
C774        O779   1.269       .  A
C774        O777   1.264       .  A
C774       C1486   1.478       .  S
Cd775       O782   2.410       .  S
Cd775       O781   2.446       .  S
Cd775       O780   2.455       .  S
Cd775       O776   2.479       .  S
Cd775       O779   2.500       .  S
Cd775       O777   2.443       .  S
C778        O782   1.261       .  A
C778       C1489   1.475       .  S
O783        C786   1.270       .  A
O783       Cd788   2.470       .  S
C784        O793   1.262       .  A
C784        O789   1.270       .  A
C784       C1502   1.468       .  S
O785        C791   1.271       .  A
O785       Cd788   2.483       .  S
C786        O794   1.267       .  A
C786       C1481   1.476       .  S
C787        O792   1.267       .  A
C787        O790   1.264       .  A
C787       C1477   1.469       .  S
Cd788       O795   2.378       .  S
Cd788       O794   2.433       .  S
Cd788       O793   2.427       .  S
Cd788       O789   2.453       .  S
Cd788       O792   2.467       .  S
Cd788       O790   2.449       .  S
C791        O795   1.262       .  A
C791       C1505   1.468       .  S
O796        C799   1.267       .  A
O796       Cd801   2.476       .  S
C797        O806   1.268       .  A
C797        O802   1.269       .  A
O798        C804   1.271       .  A
O798       Cd801   2.501       .  S
C799        O807   1.264       .  A
C799       C1482   1.475       .  S
C800        O805   1.268       .  A
C800        O803   1.263       .  A
C800       C1473   1.480       .  S
Cd801       O808   2.399       .  S
Cd801       O807   2.462       .  S
Cd801       O806   2.447       .  S
Cd801       O802   2.441       .  S
Cd801       O805   2.504       .  S
Cd801       O803   2.464       .  S
C804        O808   1.262       .  A
C804       C1494   1.475       .  S
O809        C812   1.271       .  A
O809       Cd814   2.449       .  S
C810        O819   1.267       .  A
C810        O815   1.272       .  A
C810       C1469   1.478       .  S
O811        C817   1.277       .  A
O811       Cd814   2.494       .  S
C812        O820   1.266       .  A
C813        O818   1.272       .  A
C813        O816   1.266       .  A
C813       C1457   1.486       .  S
Cd814       O821   2.387       .  S
Cd814       O820   2.421       .  S
Cd814       O819   2.440       .  S
Cd814       O815   2.473       .  S
Cd814       O818   2.514       .  S
Cd814       O816   2.429       .  S
C817        O821   1.263       .  A
C817       C1461   1.471       .  S
O822        C825   1.272       .  A
O822       Cd827   2.464       .  S
C823        O832   1.268       .  A
C823        O828   1.274       .  A
C823       C1470   1.478       .  S
O824        C830   1.277       .  A
O824       Cd827   2.503       .  S
C825        O833   1.266       .  A
C825       C1453   1.471       .  S
C826        O831   1.272       .  A
C826        O829   1.265       .  A
C826       C1498   1.470   1_545  S
Cd827       O834   2.378       .  S
Cd827       O833   2.414       .  S
Cd827       O832   2.435       .  S
Cd827       O828   2.463       .  S
Cd827       O831   2.497       .  S
Cd827       O829   2.413       .  S
C830        O834   1.263       .  A
C830       C1450   1.470       .  S
O835        C838   1.270       .  A
O835       Cd840   2.486       .  S
C836        O845   1.266       .  A
C836        O841   1.273       .  A
C836       C1449   1.477       .  S
O837       Cd840   2.482       .  S
C839        O844   1.271       .  A
C839        O842   1.263       .  A
C839       C1441   1.475       .  S
Cd840       O847   2.369       .  S
Cd840       O845   2.453       .  S
Cd840       O841   2.441       .  S
Cd840       O844   2.488       .  S
Cd840       O842   2.443       .  S
C843       C1454   1.471       .  S
O848        C851   1.275       .  A
O848       Cd853   2.463       .  S
C849        O858   1.268       .  A
C849        O854   1.275       .  A
C849       C1446   1.481       .  S
O850        C856   1.271       .  A
O850       Cd853   2.491       .  S
C851        O859   1.264       .  A
C851       C1462   1.475       .  S
C852        O857   1.276       .  A
C852        O855   1.266       .  A
C852       C1466   1.474       .  S
Cd853       O860   2.440       .  S
Cd853       O859   2.432       .  S
Cd853       O858   2.437       .  S
Cd853       O854   2.483       .  S
Cd853       O857   2.478       .  S
Cd853       O855   2.385       .  S
C856        O860   1.265       .  A
C856       C1437   1.475       .  S
O861        C864   1.268       .  A
O861       Cd866   2.475       .  S
C862        O871   1.263       .  A
C862        O867   1.267       .  A
C862       C1425   1.470       .  S
O863        C869   1.274       .  A
O863       Cd866   2.494       .  S
C864        O872   1.265       .  A
C864       C1434   1.477       .  S
C865        O868   1.265       .  A
C865       C1422   1.483       .  S
Cd866       O873   2.385       .  S
Cd866       O872   2.452       .  S
Cd866       O870   2.494       .  S
C869        O873   1.261       .  A
C869       C1430   1.467       .  S
O874        C877   1.267       .  A
O874       Cd879   2.456       .  S
C875        O884   1.263       .  A
C875        O880   1.266       .  A
C875       C1414   1.467       .  S
O876        C882   1.270       .  A
O876       Cd879   2.470       .  S
C877        O885   1.268       .  A
C877       C1433   1.476   1_545  S
C878        O883   1.267       .  A
C878        O881   1.265       .  A
C878       C1409   1.479       .  S
Cd879       O886   2.429       .  S
Cd879       O885   2.466       .  S
Cd879       O884   2.444       .  S
Cd879       O880   2.454       .  S
Cd879       O883   2.494       .  S
Cd879       O881   2.448       .  S
C882        O886   1.264       .  A
C882       C1417   1.470       .  S
O887        C890   1.272       .  A
O887       Cd892   2.440       .  S
C888        O897   1.264       .  A
C888        O893   1.270       .  A
C888       C1405   1.483       .  S
O889        C895   1.272       .  A
O889       Cd892   2.485       .  S
C890        O898   1.265       .  A
C890       C1429   1.473       .  S
C891        O896   1.268       .  A
C891        O894   1.265       .  A
C891       C1485   1.476       .  S
Cd892       O899   2.398       .  S
Cd892       O898   2.447       .  S
Cd892       O897   2.450       .  S
Cd892       O893   2.503       .  S
Cd892       O896   2.479       .  S
Cd892       O894   2.466       .  S
C895        O899   1.264       .  A
C895       C1426   1.473       .  S
O900        C903   1.270       .  A
C901        O910   1.266       .  A
C901        O906   1.268       .  A
C901       C1406   1.480       .  S
O902        C908   1.270       .  A
O902       Cd905   2.475       .  S
C903        O911   1.264       .  A
C903       C1418   1.472       .  S
C904        O907   1.264       .  A
C904       C1458   1.477       .  S
Cd905       O912   2.397       .  S
Cd905       O910   2.487       .  S
Cd905       O906   2.474       .  S
Cd905       O909   2.490   1_556  S
C908        O912   1.264       .  A
C908       C1413   1.469       .  S
O913        C916   1.272       .  A
O913       Cd918   2.477       .  S
C914        O923   1.266       .  A
C914        O919   1.271       .  A
C914       C1397   1.472       .  S
O915        C921   1.272       .  A
C917        O922   1.270       .  A
C917        O920   1.267       .  A
C917       C1478   1.474       .  S
Cd918       O925   2.385       .  S
Cd918       O923   2.448       .  S
Cd918       O919   2.454       .  S
Cd918       O922   2.472       .  S
Cd918       O920   2.428       .  S
C921       C1393   1.471       .  S
O926        C929   1.270       .  A
O926       Cd931   2.481       .  S
C927        O936   1.265       .  A
C927        O932   1.269       .  A
C927       C1386   1.469       .  S
O928        C934   1.274       .  A
O928       Cd931   2.498       .  S
C929        O937   1.266       .  A
C929       C1402   1.480       .  S
C930        O935   1.271       .  A
C930        O933   1.265       .  A
C930       C1381   1.485       .  S
Cd931       O938   2.425       .  S
Cd931       O937   2.458       .  S
Cd931       O936   2.443       .  S
Cd931       O932   2.448       .  S
Cd931       O935   2.505       .  S
Cd931       O933   2.462       .  S
C934        O938   1.265       .  A
C934       C1390   1.480       .  S
O939        C942   1.268       .  A
O939       Cd944   2.439       .  S
C940        O949   1.263       .  A
C940        O945   1.266       .  A
C940       C1377   1.476       .  S
O941        C947   1.271       .  A
O941       Cd944   2.502       .  S
C942        O950   1.267       .  A
C942       C1394   1.467       .  S
C943        O948   1.267       .  A
C943        O946   1.262       .  A
C943       C1373   1.478       .  S
Cd944       O951   2.407       .  S
Cd944       O950   2.446       .  S
Cd944       O949   2.453       .  S
Cd944       O945   2.485       .  S
Cd944       O948   2.496       .  S
Cd944       O946   2.466       .  S
C947        O951   1.263       .  A
C947       C1398   1.477       .  S
O952        C955   1.267       .  A
O952       Cd957   2.469       .  S
C953        O962   1.266       .  A
C953        O958   1.271       .  A
O954        C960   1.271       .  A
O954       Cd957   2.498       .  S
C955        O963   1.265       .  A
C955       C1378   1.476       .  S
C956        O961   1.272       .  A
C956        O959   1.264       .  A
C956       C1385   1.474       .  S
Cd957       O964   2.428       .  S
Cd957       O963   2.467       .  S
Cd957       O962   2.453       .  S
Cd957       O958   2.432       .  S
Cd957       O961   2.492       .  S
Cd957       O959   2.394       .  S
C960        O964   1.262       .  A
C960       C1369   1.473       .  S
O965        C968   1.268       .  A
O965       Cd970   2.435       .  S
C966        O975   1.264       .  A
C966        O971   1.266       .  A
C966       C1366   1.474       .  S
O967        C973   1.269       .  A
O967       Cd970   2.487       .  S
C968        O976   1.267       .  A
C968       C1362   1.466       .  S
C969        O974   1.266       .  A
C969        O972   1.263       .  A
C969       C1353   1.472       .  S
Cd970       O977   2.413       .  S
Cd970       O976   2.445       .  S
Cd970       O975   2.448       .  S
Cd970       O971   2.480       .  S
Cd970       O974   2.483       .  S
Cd970       O972   2.454       .  S
C973        O977   1.263       .  A
C973       C1358   1.473       .  S
O978        C981   1.269       .  A
C979        O988   1.268       .  A
C979        O984   1.269       .  A
C979       C1365   1.473       .  S
O980        C986   1.275       .  A
O980       Cd983   2.500       .  S
C981        O989   1.265       .  A
C981       C1350   1.472       .  S
C982        O985   1.265       .  A
C982       C1341   1.484       .  S
Cd983       O990   2.413       .  S
Cd983       O988   2.439       .  S
Cd983       O984   2.450       .  S
Cd983       O987   2.495       .  S
C986        O990   1.262       .  A
C986       C1345   1.474       .  S
O991        C994   1.270       .  A
O991       Cd996   2.508       .  S
C992       O1001   1.267       .  A
C992        O997   1.270       .  A
C992       C1357   1.470       .  S
O993        C999   1.272       .  A
O993       Cd996   2.489       .  S
C994       O1002   1.264       .  A
C994       C1338   1.486       .  S
C995        O998   1.265       .  A
C995       C1474   1.479       .  S
Cd996      O1003   2.383       .  S
Cd996      O1002   2.472       .  S
Cd996      O1000   2.487       .  S
C999       O1003   1.264       .  A
C999       C1361   1.472       .  S
O1004      C1007   1.271       .  A
O1004     Cd1009   2.478       .  S
C1005      O1014   1.261       .  A
C1005      O1010   1.271       .  A
C1005      C1346   1.477       .  S
O1006      C1012   1.272       .  A
O1006     Cd1009   2.501       .  S
C1007      O1015   1.268       .  A
C1007      C1337   1.484       .  S
C1008      O1013   1.267       .  A
C1008      O1011   1.264       .  A
C1008      C1382   1.480       .  S
Cd1009     O1016   2.409       .  S
Cd1009     O1015   2.475       .  S
Cd1009     O1014   2.446       .  S
Cd1009     O1010   2.491       .  S
Cd1009     O1013   2.512       .  S
Cd1009     O1011   2.474       .  S
C1012      O1016   1.263       .  A
C1012      C1349   1.477       .  S
O1017      C1020   1.270       .  A
O1017     Cd1022   2.478       .  S
C1018      O1027   1.265       .  A
C1018      O1023   1.272       .  A
C1018      C1334   1.482       .  S
O1019      C1025   1.273       .  A
O1019     Cd1022   2.487       .  S
C1020      O1028   1.264       .  A
C1020      C1330   1.474       .  S
C1021      O1026   1.268       .  A
C1021      O1024   1.263       .  A
C1021      C1321   1.478       .  S
Cd1022     O1029   2.391       .  S
Cd1022     O1028   2.444       .  S
Cd1022     O1027   2.459       .  S
Cd1022     O1023   2.497       .  S
Cd1022     O1026   2.509       .  S
Cd1022     O1024   2.453       .  S
C1025      O1029   1.264       .  A
C1025      C1325   1.473       .  S
O1030      C1033   1.270       .  A
O1030     Cd1035   2.441       .  S
C1031      O1040   1.263       .  A
C1031      O1036   1.271   1_554  A
O1032     Cd1035   2.504   1_554  S
C1033      O1041   1.268       .  A
C1033      C1318   1.471       .  S
C1034      O1039   1.269       .  A
C1034      O1037   1.265       .  A
C1034      C1374   1.478   1_455  S
Cd1035     O1042   2.394   1_556  S
Cd1035     O1041   2.457       .  S
Cd1035     O1040   2.445   1_556  S
Cd1035     O1036   2.501       .  S
Cd1035     O1039   2.491       .  S
Cd1035     O1037   2.457       .  S
C1038      C1313   1.473       .  S
O1043      C1046   1.270       .  A
O1043     Cd1048   2.460       .  S
C1044      O1053   1.267       .  A
C1044      O1049   1.272       .  A
C1044      C1310   1.480       .  S
O1045      C1051   1.271       .  A
O1045     Cd1048   2.513       .  S
C1046      O1054   1.265       .  A
C1047      O1052   1.274       .  A
C1047      O1050   1.264       .  A
C1047      C1329   1.477       .  S
Cd1048     O1055   2.444       .  S
Cd1048     O1054   2.444       .  S
Cd1048     O1053   2.457       .  S
Cd1048     O1049   2.482       .  S
Cd1048     O1052   2.493       .  S
Cd1048     O1050   2.406       .  S
C1051      O1055   1.263       .  A
C1051      C1421   1.478       .  S
O1056      C1059   1.268       .  A
O1056     Cd1061   2.482       .  S
C1057      O1066   1.266       .  A
C1057      O1062   1.267       .  A
C1057      C1314   1.467       .  S
O1058      C1064   1.271       .  A
O1058     Cd1061   2.507       .  S
C1059      O1067   1.265       .  A
C1059      C1309   1.480       .  S
C1060      O1065   1.268       .  A
C1060      O1063   1.265       .  A
C1060      C1306   1.482       .  S
Cd1061     O1068   2.396       .  S
Cd1061     O1067   2.468       .  S
Cd1061     O1066   2.459       .  S
Cd1061     O1062   2.438       .  S
Cd1061     O1065   2.495       .  S
Cd1061     O1063   2.455       .  S
C1064      O1068   1.263       .  A
C1064      C1317   1.477       .  S
O1069      C1072   1.270       .  A
O1069     Cd1074   2.489       .  S
C1070      O1079   1.264       .  A
C1070      O1075   1.270       .  A
O1071      C1077   1.271       .  A
O1071     Cd1074   2.485       .  S
C1072      O1080   1.265       .  A
C1072      C1301   1.480       .  S
C1073      O1078   1.268       .  A
C1073      O1076   1.266       .  A
C1073      C1290   1.483       .  S
Cd1074     O1081   2.418       .  S
Cd1074     O1080   2.459       .  S
Cd1074     O1079   2.431       .  S
Cd1074     O1075   2.474       .  S
Cd1074     O1078   2.493       .  S
Cd1074     O1076   2.457       .  S
C1077      O1081   1.265       .  A
C1077      C1297   1.476       .  S
O1082      C1085   1.270       .  A
O1082     Cd1087   2.491       .  S
C1083      O1092   1.267       .  A
C1083      O1088   1.271       .  A
C1083      C1282   1.472       .  S
O1084      C1090   1.272       .  A
O1084     Cd1087   2.486       .  S
C1085      O1093   1.264       .  A
C1085      C1302   1.480       .  S
C1086      O1091   1.271       .  A
C1086      O1089   1.263       .  A
C1086      C1442   1.474       .  S
Cd1087     O1094   2.401       .  S
Cd1087     O1093   2.458       .  S
Cd1087     O1092   2.438       .  S
Cd1087     O1088   2.454       .  S
Cd1087     O1091   2.497       .  S
Cd1087     O1089   2.437       .  S
C1090      O1094   1.264       .  A
C1090      C1286   1.474       .  S
O1095      C1098   1.270       .  A
O1095     Cd1100   2.449       .  S
C1096      O1105   1.264       .  A
C1096      O1101   1.271       .  A
C1096      C1277   1.480       .  S
O1097      C1103   1.273       .  A
O1097     Cd1100   2.488       .  S
C1098      O1106   1.267       .  A
C1098      C1298   1.473       .  S
C1099      O1104   1.269       .  A
C1099      O1102   1.265       .  A
C1099      C1354   1.473       .  S
Cd1100     O1107   2.379       .  S
Cd1100     O1106   2.450       .  S
Cd1100     O1105   2.457       .  S
Cd1100     O1101   2.490       .  S
Cd1100     O1104   2.481       .  S
Cd1100     O1102   2.438       .  S
C1103      O1107   1.264       .  A
C1103      C1293   1.472       .  S
O1108      C1111   1.270       .  A
O1108     Cd1113   2.448       .  S
C1109      O1118   1.264       .  A
C1109      O1114   1.270       .  A
O1110     Cd1113   2.503       .  S
C1111      O1119   1.267       .  A
C1111      C1285   1.470       .  S
C1112      O1117   1.269       .  A
C1112      O1115   1.263       .  A
C1112      C1273   1.475       .  S
Cd1113     O1120   2.403       .  S
Cd1113     O1119   2.445       .  S
Cd1113     O1118   2.453       .  S
Cd1113     O1114   2.489       .  S
Cd1113     O1117   2.488       .  S
Cd1113     O1115   2.456       .  S
C1116      C1281   1.475       .  S
O1121      C1124   1.268       .  A
O1121     Cd1126   2.444       .  S
C1122      O1131   1.264       .  A
C1122      O1127   1.267       .  A
C1122      C1269   1.478       .  S
O1123      C1129   1.270       .  A
O1123     Cd1126   2.484       .  S
C1124      O1132   1.267       .  A
C1124      C1266   1.472       .  S
C1125      O1130   1.268       .  A
C1125      O1128   1.262       .  A
C1125      C1274   1.474       .  S
Cd1126     O1133   2.401       .  S
Cd1126     O1132   2.466       .  S
Cd1126     O1131   2.457       .  S
Cd1126     O1127   2.491       .  S
Cd1126     O1130   2.493       .  S
Cd1126     O1128   2.453       .  S
C1129      O1133   1.264       .  A
C1129      C1261   1.472       .  S
O1134      C1137   1.272       .  A
O1134     Cd1139   2.462       .  S
C1135      O1144   1.268       .  A
C1135      O1140   1.271       .  A
C1135      C1270   1.478       .  S
O1136      C1142   1.274       .  A
O1136     Cd1139   2.491       .  S
C1137      O1145   1.263       .  A
C1138      O1143   1.270       .  A
C1138      O1141   1.264       .  A
C1138      C1342   1.477       .  S
Cd1139     O1146   2.391       .  S
Cd1139     O1145   2.430       .  S
Cd1139     O1144   2.456       .  S
Cd1139     O1140   2.468       .  S
Cd1139     O1143   2.507       .  S
Cd1139     O1141   2.445       .  S
C1142      O1146   1.264       .  A
C1142      C1254   1.475       .  S
O1147      C1150   1.269       .  A
O1147     Cd1152   2.458       .  S
C1148      O1157   1.265       .  A
C1148      O1153   1.266       .  A
C1148      C1262   1.468       .  S
O1149      C1155   1.272       .  A
C1151      O1156   1.268       .  A
C1151      O1154   1.262       .  A
C1151      C1305   1.476       .  S
Cd1152     O1159   2.398       .  S
Cd1152     O1157   2.453       .  S
Cd1152     O1153   2.449       .  S
Cd1152     O1156   2.515       .  S
Cd1152     O1154   2.448       .  S
C1155      C1265   1.478       .  S
O1160      C1163   1.272       .  A
O1160     Cd1165   2.449       .  S
C1161      O1170   1.266       .  A
C1161      O1166   1.272       .  A
C1161      C1253   1.470       .  S
O1162      C1168   1.279       .  A
O1162     Cd1165   2.474       .  S
C1163      O1171   1.270       .  A
C1163      C1250   1.476       .  S
C1164      O1169   1.274       .  A
C1164      O1167   1.264       .  A
C1164      C1410   1.472       .  S
Cd1165     O1172   2.383       .  S
Cd1165     O1171   2.449       .  S
Cd1165     O1170   2.435       .  S
Cd1165     O1166   2.448       .  S
Cd1165     O1169   2.504       .  S
Cd1165     O1167   2.415       .  S
C1168      O1172   1.264       .  A
C1168      C1258   1.469       .  S
O1173      C1176   1.271       .  A
O1173     Cd1178   2.492       .  S
C1174      O1183   1.265       .  A
C1174      O1179   1.272       .  A
C1174      C1245   1.478       .  S
O1175      C1181   1.268       .  A
O1175     Cd1178   2.477       .  S
C1176      O1184   1.264       .  A
C1176      C1237   1.477       .  S
C1177      O1182   1.272       .  A
C1177      O1180   1.265       .  A
C1177      C1241   1.471       .  S
Cd1178     O1185   2.458       .  S
Cd1178     O1184   2.430       .  S
Cd1178     O1183   2.453       .  S
Cd1178     O1179   2.481       .  S
Cd1178     O1182   2.475       .  S
Cd1178     O1180   2.398       .  S
C1181      O1185   1.267       .  A
C1181      C1438   1.479       .  S
O1186      C1189   1.270       .  A
O1186     Cd1191   2.482       .  S
C1187      O1196   1.265       .  A
C1187      O1192   1.271       .  A
C1187      C1230   1.473       .  S
O1188      C1194   1.273       .  A
O1188     Cd1191   2.517       .  S
C1189      O1197   1.264       .  A
C1189      C1246   1.477       .  S
C1190      O1193   1.264   1_556  A
C1190      C1289   1.477       .  S
Cd1191     O1198   2.400       .  S
Cd1191     O1197   2.446       .  S
Cd1191     O1195   2.493       .  S
C1194      O1198   1.263       .  A
C1194      C1233   1.480       .  S
O1199      C1202   1.271       .  A
C1200      O1209   1.265       .  A
C1200      O1205   1.268       .  A
C1200      C1225   1.480   1_655  S
O1201      C1207   1.270       .  A
O1201     Cd1204   2.470       .  S
C1202      O1210   1.267       .  A
C1202      C1242   1.468       .  S
C1203      O1206   1.263       .  A
C1203      C1370   1.474       .  S
Cd1204     O1211   2.447       .  S
Cd1204     O1209   2.458       .  S
Cd1204     O1205   2.487       .  S
Cd1204     O1208   2.489   1_556  S
C1207      O1211   1.265       .  A
C1207      C1238   1.474       .  S
O1212      C1215   1.267       .  A
O1212     Cd1217   2.460       .  S
C1213      O1222   1.267       .  A
C1213      O1218   1.268       .  A
C1213      C1226   1.480       .  S
O1214      C1220   1.271       .  A
O1214     Cd1217   2.484       .  S
C1215      O1223   1.264       .  A
C1215      C1234   1.474       .  S
C1216      O1221   1.267       .  A
C1216      O1219   1.265       .  A
C1216      C1322   1.483       .  S
Cd1217     O1224   2.424       .  S
Cd1217     O1223   2.477       .  S
Cd1217     O1222   2.476       .  S
Cd1217     O1218   2.477       .  S
Cd1217     O1221   2.499       .  S
Cd1217     O1219   2.466       .  S
C1220      O1224   1.264       .  A
C1220      C1229   1.474       .  S
C1225      C1226   1.349       .  D
C1225      H1227   1.087       .  S
C1226      H1228   1.087   1_455  S
C1229      C1230   1.348       .  D
C1229      H1231   1.086       .  S
C1230      H1232   1.087       .  S
C1233      C1234   1.350       .  D
C1233      H1235   1.086       .  S
C1234      H1236   1.087       .  S
C1237      C1238   1.349       .  D
C1237      H1239   1.086       .  S
C1238      H1240   1.086       .  S
C1241      C1242   1.346       .  D
C1241      H1243   1.086       .  S
C1242      H1244   1.087       .  S
C1245      C1246   1.341   1_655  D
C1245      H1247   1.086       .  S
C1246      H1248   1.086       .  S
C1249      C1250   1.348       .  D
C1250      H1252   1.087       .  S
C1253      C1254   1.349       .  D
C1253      H1255   1.087       .  S
C1254      H1256   1.086       .  S
C1257      C1258   1.335       .  D
C1258      H1260   1.087       .  S
C1261      C1262   1.346       .  D
C1261      H1263   1.086       .  S
C1262      H1264   1.087       .  S
C1265      C1266   1.348       .  D
C1265      H1267   1.086       .  S
C1266      H1268   1.087       .  S
C1269      C1270   1.349       .  D
C1269      H1271   1.087       .  S
C1270      H1272   1.087       .  S
C1273      C1274   1.340       .  D
C1273      H1275   1.086       .  S
C1274      H1276   1.086       .  S
C1277      C1278   1.341       .  D
C1277      H1279   1.086       .  S
C1278      H1280   1.086       .  S
C1281      C1282   1.348       .  D
C1281      H1283   1.086       .  S
C1282      H1284   1.087       .  S
C1285      C1286   1.347       .  D
C1285      H1287   1.087       .  S
C1286      H1288   1.086       .  S
C1289      C1290   1.345       .  D
C1289      H1291   1.086       .  S
C1290      H1292   1.086       .  S
C1293      C1294   1.348       .  D
C1293      H1295   1.086       .  S
C1294      H1296   1.087       .  S
C1297      C1298   1.347       .  D
C1297      H1299   1.086       .  S
C1298      H1300   1.087       .  S
C1301      C1302   1.342       .  D
C1301      H1303   1.086       .  S
C1302      H1304   1.086       .  S
C1305      C1306   1.346   1_545  D
C1305      H1307   1.087   1_545  S
C1306      H1308   1.087   1_565  S
C1309      C1310   1.343       .  D
C1309      H1311   1.086       .  S
C1310      H1312   1.086       .  S
C1313      C1314   1.346       .  D
C1314      H1316   1.087       .  S
C1317      C1318   1.348       .  D
C1317      H1319   1.086       .  S
C1318      H1320   1.087       .  S
C1321      C1322   1.346       .  D
C1321      H1323   1.087       .  S
C1322      H1324   1.087       .  S
C1325      C1326   1.347       .  D
C1325      H1327   1.086       .  S
C1326      H1328   1.087       .  S
C1329      C1330   1.350       .  D
C1329      H1331   1.086       .  S
C1330      H1332   1.087       .  S
C1333      C1334   1.342       .  D
C1333      H1335   1.086       .  S
C1334      H1336   1.086       .  S
C1337      C1338   1.352       .  D
C1337      H1339   1.087       .  S
C1338      H1340   1.086       .  S
C1341      C1342   1.346       .  D
C1341      H1343   1.087       .  S
C1342      H1344   1.087       .  S
C1345      C1346   1.337       .  D
C1345      H1347   1.087       .  S
C1346      H1348   1.086       .  S
C1349      C1350   1.349       .  D
C1349      H1351   1.086       .  S
C1350      H1352   1.087       .  S
C1353      C1354   1.345       .  D
C1353      H1355   1.087       .  S
C1354      H1356   1.087       .  S
C1357      C1358   1.346       .  D
C1357      H1359   1.087       .  S
C1358      H1360   1.086       .  S
C1361      C1362   1.346       .  D
C1361      H1363   1.086       .  S
C1362      H1364   1.087       .  S
C1365      C1366   1.346       .  D
C1365      H1367   1.087       .  S
C1366      H1368   1.087       .  S
C1369      C1370   1.337       .  D
C1369      H1371   1.087       .  S
C1370      H1372   1.087       .  S
C1373      C1374   1.348       .  D
C1373      H1375   1.087   1_655  S
C1374      H1376   1.086       .  S
C1377      C1378   1.347       .  D
C1377      H1379   1.087       .  S
C1378      H1380   1.087       .  S
C1381      C1382   1.348       .  D
C1381      H1383   1.087       .  S
C1382      H1384   1.087       .  S
C1385      C1386   1.348       .  D
C1385      H1387   1.086       .  S
C1386      H1388   1.087       .  S
C1389      C1390   1.351       .  D
C1390      H1392   1.086   1_556  S
C1393      C1394   1.345       .  D
C1393      H1395   1.086       .  S
C1394      H1396   1.087       .  S
C1397      C1398   1.349       .  D
C1397      H1399   1.087       .  S
C1398      H1400   1.086       .  S
C1401      C1402   1.342       .  D
C1401      H1403   1.086       .  S
C1402      H1404   1.086   1_556  S
C1405      C1406   1.350   1_565  D
C1405      H1407   1.086   1_565  S
C1406      H1408   1.087   1_545  S
C1409      C1410   1.343       .  D
C1409      H1411   1.087       .  S
C1410      H1412   1.087       .  S
C1413      C1414   1.345       .  D
C1413      H1415   1.086       .  S
C1414      H1416   1.087       .  S
C1417      C1418   1.348       .  D
C1417      H1419   1.087       .  S
C1418      H1420   1.087       .  S
C1421      C1422   1.345       .  D
C1421      H1423   1.087       .  S
C1422      H1424   1.087       .  S
C1425      C1426   1.348       .  D
C1425      H1427   1.087       .  S
C1426      H1428   1.086       .  S
C1429      C1430   1.336       .  D
C1429      H1431   1.086       .  S
C1430      H1432   1.087       .  S
C1433      C1434   1.347       .  D
C1433      H1435   1.087       .  S
C1434      H1436   1.086   1_565  S
C1437      C1438   1.344       .  D
C1437      H1439   1.087       .  S
C1438      H1440   1.087       .  S
C1441      C1442   1.338   1_655  D
C1441      H1443   1.086       .  S
C1442      H1444   1.086       .  S
C1445      C1446   1.343       .  D
C1446      H1448   1.086   1_556  S
C1449      C1450   1.337       .  D
C1449      H1451   1.086       .  S
C1450      H1452   1.087       .  S
C1453      C1454   1.348       .  D
C1453      H1455   1.087       .  S
C1454      H1456   1.086       .  S
C1457      C1458   1.348       .  D
C1457      H1459   1.086       .  S
C1458      H1460   1.086       .  S
C1461      C1462   1.336       .  D
C1461      H1463   1.087       .  S
C1462      H1464   1.086       .  S
C1465      C1466   1.348       .  D
C1465      H1467   1.087       .  S
C1466      H1468   1.086   1_556  S
C1469      C1470   1.342       .  D
C1469      H1471   1.086       .  S
C1470      H1472   1.086       .  S
C1473      C1474   1.348       .  D
C1473      H1475   1.087       .  S
C1477      C1478   1.343       .  D
C1477      H1479   1.087       .  S
C1478      H1480   1.087       .  S
C1481      C1482   1.347       .  D
C1481      H1483   1.087       .  S
C1482      H1484   1.087       .  S
C1485      C1486   1.348       .  D
C1485      H1487   1.086       .  S
C1486      H1488   1.086       .  S
C1489      C1490   1.340       .  D
C1489      H1491   1.087       .  S
C1490      H1492   1.086       .  S
C1493      C1494   1.348       .  D
C1493      H1495   1.087       .  S
C1494      H1496   1.086       .  S
C1497      C1498   1.344       .  D
C1497      H1499   1.086       .  S
C1498      H1500   1.087       .  S
C1501      C1502   1.335       .  D
C1501      H1503   1.087       .  S
C1502      H1504   1.086       .  S
C1505      C1506   1.346       .  D
C1505      H1507   1.086       .  S
C1506      H1508   1.087       .  S
C1509      C1510   1.347       .  D
C1509      H1511   1.087       .  S
C1510      H1512   1.087       .  S
