geometry optimzed in LAMMPS
_audit_creation_date              2020-12-01 
_audit_creation_method            'lammps2cif' 
_symmetry_space_group_name_H-M    'P1' 
_symmetry_Int_Tables_number       1 
_symmetry_cell_setting            triclinic 
loop_ 
_symmetry_equiv_pos_as_xyz 
  x,y,z 
_cell_length_a                    40.18347534 
_cell_length_b                    40.386408066913724 
_cell_length_c                    54.274935330740334 
_cell_angle_alpha                 89.99393918451632 
_cell_angle_beta                  89.89973511826794 
_cell_angle_gamma                 119.8491117962614 
loop_ 
_atom_site_label 
_atom_site_type_symbol 
_atom_site_fract_x 
_atom_site_fract_y 
_atom_site_fract_z 
_atom_site_charge 
O1          O  0.12322305  0.38104380  0.16366350    -0.55600
C2          C  0.07250224  0.40592834  0.11040284     0.77000
O3          O  0.09265275  0.30283560  0.09871305    -0.56800
C4          C  0.13603074  0.35876582  0.16843560     0.77000
C5          C  0.01023521  0.28923349  0.15135333     0.79400
Cd6        Cd  0.08262031  0.34425238  0.12853203     1.37500
O7          O  0.09863585  0.41107399  0.12544893    -0.55600
O8          O  0.03619176  0.31818953  0.16225066    -0.54400
C9          C  0.11983418  0.33039476  0.08722295     0.79300
O10         O  0.01712288  0.28544054  0.12903019    -0.56800
O11         O  0.04988102  0.37164178  0.10422643    -0.55300
O12         O  0.12488316  0.33030672  0.15424869    -0.55200
O13         O  0.12854684  0.36337034  0.09462831    -0.54400
O14         O  0.34936334  0.40688483  0.36857991    -0.55600
C15         C  0.26949922  0.36118864  0.32568735     0.77000
O16         O  0.26848255  0.27679594  0.35287150    -0.56800
C17         C  0.36861889  0.40434411  0.38614878     0.77000
C18         C  0.24210596  0.32967377  0.41152869     0.79400
Cd19       Cd  0.29478941  0.34143148  0.37084579     1.37500
O20         O  0.30221088  0.36406992  0.32749968    -0.55600
O21         O  0.26321837  0.36183186  0.40162833    -0.54400
C22         C  0.29884007  0.27480728  0.35416633     0.79300
O23         O  0.24616372  0.30256674  0.40326662    -0.56800
O24         O  0.24906991  0.35035564  0.34497440    -0.55300
O25         O  0.35388667  0.37213652  0.39676613    -0.55200
O26         O  0.32684322  0.30259597  0.36479247    -0.54400
O27         O  0.33303420  0.90331527  0.79457139    -0.55600
C28         C  0.24752606  0.87812171  0.84000043     0.77000
O29         O  0.27563890  0.97983651  0.80053153    -0.56800
C30         C  0.35559945  0.92894578  0.77981537     0.77000
C31         C  0.23082903  0.88371892  0.75628296     0.79400
Cd32       Cd  0.28412050  0.92284658  0.79653031     1.37500
O33         O  0.28034602  0.88469523  0.83307687    -0.55600
O34         O  0.23921819  0.86668438  0.77253459    -0.54400
C35         C  0.30079380  0.99599173  0.81712695     0.79300
O36         O  0.24764973  0.91975247  0.75823094    -0.56800
O37         O  0.23143097  0.89140649  0.82636824    -0.55300
O38         O  0.34485947  0.95185193  0.77233652    -0.55200
O39         O  0.31897308  0.97915332  0.82309309    -0.54400
O40         O  0.08489730  0.65928502  0.03792537    -0.55600
C41         C  0.11527911  0.74687960  0.99721778     0.77000
O42         O  0.00341537  0.70601383  0.03941636    -0.56800
C43         C  0.06107535  0.63727447  0.05377479     0.77000
C44         C  0.10938433  0.76228248  0.07876870     0.79400
Cd45       Cd  0.06748621  0.70877896  0.03917139     1.37500
O46         O  0.10172833  0.76284776  0.01074789    -0.55600
O47         O  0.11821240  0.73837254  0.07056693    -0.54400
C48         C  0.99238675  0.68770678  0.01931028     0.79300
O49         O  0.07965565  0.76056091  0.06944931    -0.56800
O50         O  0.10709393  0.71349298  0.00335015    -0.55300
O51         O  0.03983269  0.64864007  0.06357309    -0.55200
O52         O  0.01529812  0.67868217  0.00957735    -0.54400
O53         O  0.62754754  0.89180755  0.66243747    -0.55600
C54         C  0.59476594  0.93058205  0.71971993     0.77000
O55         O  0.69467603  0.91675490  0.73677370    -0.56800
C56         C  0.65111057  0.88086184  0.65686038     0.77000
C57         C  0.72012304  0.99913188  0.68416021     0.79400
Cd58       Cd  0.65973837  0.92462468  0.70130339     1.37500
O59         O  0.59211218  0.90868095  0.70225003    -0.55600
O60         O  0.68508068  0.98575245  0.67891942    -0.54400
C61         C  0.66994549  0.88222629  0.74100833     0.79300
O62         O  0.72735922  0.97900719  0.69867392    -0.56800
O63         O  0.62805198  0.95067133  0.72870479    -0.55300
O64         O  0.67804696  0.88961679  0.67204214    -0.55200
O65         O  0.64082733  0.86783301  0.72715476    -0.54400
O66         O  0.67584306  0.77154269  0.48088593    -0.55600
C67         C  0.60472282  0.64423373  0.44247543     0.77000
O68         O  0.65033294  0.74824463  0.42426107    -0.56800
C69         C  0.65312627  0.75230450  0.49806428     0.77000
C70         C  0.73158930  0.70882280  0.47567930     0.79400
Cd71       Cd  0.66885757  0.71761450  0.45627563     1.37500
O72         O  0.60179301  0.66511584  0.45876779    -0.55600
O73         O  0.73020240  0.73920158  0.47795989    -0.54400
C74         C  0.68256205  0.76614639  0.41368642     0.79300
O75         O  0.70448571  0.68254588  0.46352654    -0.56800
O76         O  0.63758996  0.65710234  0.43278002    -0.55300
O77         O  0.63616970  0.71637008  0.49557738    -0.55200
O78         O  0.70870579  0.76058812  0.42213563    -0.54400
O79         O  0.92718963  0.32324723  0.53983834    -0.55600
C80         C  0.89954082  0.23284643  0.49745307     0.77000
O81         O  0.01037518  0.27896956  0.53873260    -0.56800
C82         C  0.95136565  0.34471482  0.55568556     0.77000
C83         C  0.90726559  0.22003643  0.57970018     0.79400
Cd84       Cd  0.94547733  0.27360827  0.53943817     1.37500
O85         O  0.90272220  0.26426700  0.50426812    -0.55600
O86         O  0.89437957  0.24017127  0.57052619    -0.54400
C87         C  0.01901975  0.29320857  0.51725219     0.79300
O88         O  0.93867861  0.22519653  0.57082205    -0.56800
O89         O  0.91565750  0.21950666  0.51099212    -0.55300
O90         O  0.97367482  0.33359760  0.56392431    -0.55200
O91         O  0.99487375  0.30023918  0.50719792    -0.54400
O92         O  0.67482646  0.03815738  0.26765028    -0.55600
C93         C  0.77055513  0.10472106  0.33829529     0.77000
O94         O  0.74019484  0.00414492  0.29423848    -0.56800
C95         C  0.66108082  0.05670612  0.27821882     0.77000
C96         C  0.78452753  0.10706717  0.25553349     0.79400
Cd97       Cd  0.73219362  0.06197219  0.29468066     1.37500
O98         O  0.78810295  0.09714064  0.32186354    -0.55600
O99         O  0.76941807  0.12020307  0.27015331    -0.54400
C100        C  0.71666651  0.98711051  0.31161389     0.79300
O101        O  0.77474199  0.07223967  0.25859760    -0.56800
O102        O  0.73554179  0.09339997  0.33415098    -0.55300
O103        O  0.67992748  0.07676912  0.29642597    -0.55200
O104        O  0.69951722  0.00384416  0.31987081    -0.54400
O105        O  0.38877293  0.26327394  0.99365909    -0.55600
C106        C  0.42068380  0.34456338  0.94084712     0.77000
O107        O  0.31652609  0.22953637  0.92542731    -0.56800
C108        C  0.35968354  0.23283525  0.00096422     0.77000
C109        C  0.30198701  0.29563365  0.97777544     0.79400
Cd110      Cd  0.35597610  0.27442506  0.95854983     1.37500
O111        O  0.42227903  0.32766401  0.96006830    -0.55600
O112        O  0.33611177  0.31019302  0.98540424    -0.54400
C113        C  0.34183840  0.22131737  0.91890843     0.79300
O114        O  0.29330379  0.27284811  0.95977934    -0.56800
O115        O  0.38868656  0.32911763  0.92981571    -0.55300
O116        O  0.32974569  0.22134437  0.98812482    -0.55200
O117        O  0.37347934  0.23836389  0.93022656    -0.54400
O118        O  0.42215806  0.07653766  0.20227244    -0.55600
C119        C  0.35759826  0.09781651  0.15818511     0.77000
O120        O  0.28748784  0.99983283  0.19981082    -0.56800
C121        C  0.42155543  0.05681543  0.22055627     0.77000
C122        C  0.33964678  0.10012321  0.24129893     0.79400
Cd123      Cd  0.35331996  0.05728409  0.20302007     1.37500
O124        O  0.32959322  0.08595230  0.17295688    -0.55600
O125        O  0.32249570  0.06393297  0.24155382    -0.54400
C126        C  0.29688043  0.98138789  0.18520563     0.79300
O127        O  0.36301267  0.11591100  0.22371522    -0.56800
O128        O  0.38426102  0.09139955  0.16430473    -0.55300
O129        O  0.38927535  0.03739115  0.23103473    -0.55200
O130        O  0.33230818  0.99677945  0.18051524    -0.54400
O131        O  0.68180877  0.57822512  0.86787693    -0.55600
C132        C  0.76813100  0.64262423  0.82240110     0.77000
O133        O  0.73100377  0.70925440  0.86622381    -0.56800
C134        C  0.65839833  0.58106935  0.88210671     0.77000
C135        C  0.78005602  0.65541255  0.90658562     0.79400
Cd136      Cd  0.72910191  0.64625581  0.86613950     1.37500
O137        O  0.73488831  0.61621495  0.82811832    -0.55600
O138        O  0.76254497  0.62506832  0.89416021    -0.54400
C139        C  0.70836517  0.70098129  0.84807010     0.79300
O140        O  0.77382330  0.68218699  0.90059196    -0.56800
O141        O  0.78359474  0.67030664  0.83728612    -0.55300
O142        O  0.66752055  0.61448847  0.88905191    -0.55200
O143        O  0.69452560  0.66746071  0.83978562    -0.54400
O144        O  0.93378349  0.63526576  0.66699306    -0.55600
C145        C  0.95396198  0.58564241  0.60906523     0.77000
O146        O  0.94327781  0.68488360  0.58600424    -0.56800
C147        C  0.90587489  0.64144696  0.66753117     0.77000
C148        C  0.02277398  0.71693994  0.63734338     0.79400
Cd149      Cd  0.94956746  0.65243525  0.62312394     1.37500
O150        O  0.96317253  0.61325881  0.59440369    -0.55600
O151        O  0.99282933  0.71958388  0.63549795    -0.54400
C152        C  0.90742089  0.66278623  0.58364324     0.79300
O153        O  0.01956930  0.68564431  0.63031448    -0.56800
O154        O  0.94273519  0.58906478  0.63020733    -0.55300
O155        O  0.89770389  0.65150723  0.64744424    -0.55200
O156        O  0.89197710  0.63567903  0.59900263    -0.54400
C157        C  0.88282696  0.64302170  0.73504423     0.14900
C158        C  0.84543434  0.63734787  0.73378560     0.01800
C159        C  0.82739094  0.63136031  0.71079769     0.16800
C160        C  0.84677896  0.63192797  0.68927004     0.26200
C161        C  0.88446290  0.63812622  0.69041073    -0.40100
C162        C  0.90213700  0.64316814  0.71355093     0.33300
C163        C  0.82557425  0.63862251  0.75638471     0.01900
F164        F  0.79134803  0.62607214  0.70915702    -0.12400
F165        F  0.93862945  0.64972080  0.71533980    -0.13000
C166        C  0.84049571  0.67234372  0.77024125     0.16800
C167        C  0.82178470  0.67375067  0.79161020     0.26200
C168        C  0.78776282  0.64128407  0.79957717    -0.40100
C169        C  0.77259664  0.60765882  0.78535420     0.33200
C170        C  0.79139811  0.60639779  0.76397638     0.14900
F171        F  0.87284374  0.70421573  0.76274618    -0.12400
F172        F  0.73972986  0.57579531  0.79216419    -0.12900
F173        F  0.83669593  0.70717217  0.80418921    -0.15200
F174        F  0.77652191  0.57348884  0.75082558    -0.13800
F175        F  0.90069208  0.64863023  0.75712537    -0.13800
F176        F  0.82864609  0.62644393  0.66730254    -0.15200
C177        C  0.55598264  0.51698250  0.90395008     0.14900
C178        C  0.55429786  0.48145619  0.90528983     0.01800
C179        C  0.58668414  0.47875803  0.89881869     0.16800
C180        C  0.62042639  0.51113020  0.89121386     0.26200
C181        C  0.62249215  0.54694805  0.89013935    -0.40100
C182        C  0.58993733  0.54959502  0.89661958     0.33300
C183        C  0.51951158  0.44735631  0.91454700     0.01900
F184        F  0.58557137  0.44462923  0.89993699    -0.12400
F185        F  0.59078795  0.58359369  0.89553528    -0.13000
C186        C  0.48574817  0.42990346  0.90052332     0.16800
C187        C  0.45350543  0.39658572  0.90902586     0.26200
C188        C  0.45450214  0.38026105  0.93182585    -0.40100
C189        C  0.48852418  0.39823985  0.94585204     0.33200
C190        C  0.52059894  0.43141224  0.93726475     0.14900
F191        F  0.48436383  0.44461603  0.87830118    -0.12400
F192        F  0.49100230  0.38380602  0.96792553    -0.12900
F193        F  0.42165168  0.38002403  0.89468349    -0.15200
F194        F  0.55290270  0.44818186  0.95120323    -0.13800
F195        F  0.52497068  0.52016835  0.91021407    -0.13800
F196        F  0.65143517  0.50756031  0.88558369    -0.15200
C197        C  0.33571862  0.15267716  0.11026825     0.14900
C198        C  0.35968313  0.15498816  0.09068727     0.01800
C199        C  0.38323562  0.13866110  0.09340360     0.16800
C200        C  0.38293310  0.12038641  0.11539604     0.26200
C201        C  0.35878743  0.11787588  0.13503441    -0.40100
C202        C  0.33514894  0.13421269  0.13218453     0.33300
C203        C  0.35999773  0.17437204  0.06743477     0.01900
F204        F  0.40589532  0.13965990  0.07449647    -0.12400
F205        F  0.31185896  0.13292841  0.15076376    -0.13000
C206        C  0.39394010  0.20621786  0.05905831     0.16800
C207        C  0.39409750  0.22495559  0.03731726     0.26200
C208        C  0.36018902  0.21215968  0.02349688    -0.40100
C209        C  0.32624246  0.17998345  0.03194493     0.33200
C210        C  0.32621415  0.16137891  0.05367791     0.14900
F211        F  0.42678052  0.21979208  0.07232445    -0.12400
F212        F  0.29278900  0.16660600  0.01939142    -0.12900
F213        F  0.42743257  0.25587296  0.03002639    -0.15200
F214        F  0.29310762  0.13040463  0.06124265    -0.13800
F215        F  0.31325992  0.16890114  0.10830480    -0.13800
F216        F  0.40555141  0.10432299  0.11717517    -0.15200
C217        C  0.49005983  0.03923428  0.25955837     0.14900
C218        C  0.52310251  0.05495160  0.24472153     0.01800
C219        C  0.52281896  0.07141345  0.22201100     0.16800
C220        C  0.49005420  0.07235628  0.21426400     0.26200
C221        C  0.45661344  0.05636726  0.22900244    -0.40100
C222        C  0.45708278  0.03975048  0.25177387     0.33300
C223        C  0.55817812  0.05501705  0.25324987     0.01900
F224        F  0.55460686  0.08719740  0.20749925    -0.12400
F225        F  0.42580954  0.02432859  0.26672264    -0.13000
C226        C  0.57174858  0.03346607  0.24093321     0.16800
C227        C  0.60486413  0.03355052  0.24913480     0.26200
C228        C  0.62529097  0.05556486  0.26973636    -0.40100
C229        C  0.61150657  0.07724927  0.28193989     0.33200
C230        C  0.57830374  0.07686069  0.27378319     0.14900
F231        F  0.55263938  0.01199285  0.22107766    -0.12400
F232        F  0.63024232  0.09921519  0.30171112    -0.12900
F233        F  0.61686834  0.01211990  0.23681825    -0.15200
F234        F  0.56615355  0.09851416  0.28567672    -0.13800
F235        F  0.48967162  0.02303050  0.28155832    -0.13800
F236        F  0.49113189  0.08874546  0.19221543    -0.15200
C237        C  0.98365936  0.43984733  0.58778104     0.14900
C238        C  0.95553423  0.44849112  0.58003383     0.01800
C239        C  0.92602465  0.42298372  0.56449482     0.16800
C240        C  0.92472207  0.38942162  0.55658011     0.26200
C241        C  0.95301680  0.38057637  0.56411685    -0.40100
C242        C  0.98249953  0.40623870  0.57989018     0.33300
C243        C  0.95700609  0.48432927  0.58777538     0.01900
F244        F  0.89807195  0.43042309  0.55723036    -0.12400
F245        F  0.01051933  0.39915351  0.58750139    -0.13000
C246        C  0.96271952  0.51213293  0.57016555     0.16800
C247        C  0.96229830  0.54527106  0.57709344     0.26200
C248        C  0.95588703  0.55115200  0.60185195    -0.40100
C249        C  0.95072629  0.52335726  0.61954348     0.33200
C250        C  0.95134663  0.49030412  0.61253341     0.14900
F251        F  0.96867356  0.50708753  0.54616011    -0.12400
F252        F  0.94492484  0.52796643  0.64365498    -0.12900
F253        F  0.96748909  0.57119687  0.55940411    -0.15200
F254        F  0.94536103  0.46358518  0.62982577    -0.13800
F255        F  0.01268317  0.46437645  0.60262119    -0.13800
F256        F  0.89544672  0.36551223  0.54167723    -0.15200
C257        C  0.83924364  0.20801587  0.43937920     0.14900
C258        C  0.84427894  0.17871068  0.42944473     0.01800
C259        C  0.86682214  0.16671525  0.44213604     0.16800
C260        C  0.88408721  0.18374083  0.46448357     0.26200
C261        C  0.87931616  0.21335043  0.47450396    -0.40100
C262        C  0.85666575  0.22529879  0.46165603     0.33300
C263        C  0.82563240  0.16039152  0.40595956     0.01900
F264        F  0.87187088  0.13823760  0.43295491    -0.12400
F265        F  0.85138236  0.25377312  0.47054216    -0.13000
C266        C  0.84776808  0.16237232  0.38537150     0.16800
C267        C  0.82997649  0.14480646  0.36322490     0.26200
C268        C  0.78963950  0.12490111  0.36131824    -0.40100
C269        C  0.76761816  0.12332540  0.38198828     0.33200
C270        C  0.78548759  0.14078696  0.40409729     0.14900
F271        F  0.88667848  0.18172910  0.38665510    -0.12400
F272        F  0.72868964  0.10399292  0.38110159    -0.12900
F273        F  0.85229690  0.14766883  0.34361723    -0.15200
F274        F  0.76353320  0.13772593  0.42396083    -0.13800
F275        F  0.81799100  0.22040447  0.42719745    -0.13800
F276        F  0.90615867  0.17169232  0.47597908    -0.15200
C277        C  0.66299441  0.81716340  0.36213380     0.14900
C278        C  0.69857614  0.85088212  0.35990743     0.01800
C279        C  0.73009626  0.85448630  0.37335680     0.16800
C280        C  0.72551702  0.82582442  0.38988426     0.26200
C281        C  0.68923045  0.79320624  0.39332777    -0.40100
C282        C  0.65831199  0.78866132  0.37873555     0.33300
C283        C  0.70156212  0.88393335  0.34601880     0.01900
F284        F  0.76468712  0.88694241  0.37177414    -0.12400
F285        F  0.62321332  0.75698247  0.38098514    -0.13000
C286        C  0.67953446  0.90034421  0.35350177     0.16800
C287        C  0.68374272  0.93311623  0.34191579     0.26200
C288        C  0.71017130  0.95039131  0.32241434    -0.40100
C289        C  0.73158624  0.93326427  0.31451952     0.33200
C290        C  0.72736565  0.90040793  0.32628475     0.14900
F291        F  0.65484256  0.88539112  0.37279500    -0.12400
F292        F  0.75722348  0.94866055  0.29576880    -0.12900
F293        F  0.66244571  0.94835633  0.35034403    -0.15200
F294        F  0.74857012  0.88472077  0.31847473    -0.13800
F295        F  0.63237794  0.81245609  0.34880336    -0.13800
F296        F  0.75590148  0.83136474  0.40381580    -0.15200
C297        C  0.79096727  0.66440146  0.49659871     0.14900
C298        C  0.81548914  0.69125238  0.51393942     0.01800
C299        C  0.81458830  0.72527862  0.51710190     0.16800
C300        C  0.78837945  0.73166932  0.50396497     0.26200
C301        C  0.76235844  0.70397732  0.48738031    -0.40100
C302        C  0.76468828  0.67068309  0.48339247     0.33300
C303        C  0.83955883  0.68244545  0.53029742     0.01900
F304        F  0.83778101  0.75151616  0.53391746    -0.12400
F305        F  0.74103453  0.64373395  0.46710223    -0.13000
C306        C  0.87969337  0.70538474  0.53029082     0.16800
C307        C  0.90194301  0.69849776  0.54715585     0.26200
C308        C  0.88435304  0.66861185  0.56449811    -0.40100
C309        C  0.84403874  0.64525564  0.56405931     0.33200
C310        C  0.82198928  0.65214111  0.54713538     0.14900
F311        F  0.89731906  0.73465294  0.51401829    -0.12400
F312        F  0.82557992  0.61629767  0.58046001    -0.12900
F313        F  0.94062722  0.72149358  0.54669150    -0.15200
F314        F  0.78316883  0.63009234  0.54785225    -0.13800
F315        F  0.79204688  0.63171939  0.49280238    -0.13800
F316        F  0.78753402  0.76434312  0.50833698    -0.15200
C317        C  0.71590437  0.84406825  0.78548606     0.14900
C318        C  0.68355550  0.81165369  0.79511628     0.01800
C319        C  0.64679710  0.80442291  0.78827032     0.16800
C320        C  0.64242190  0.82778236  0.77107874     0.26200
C321        C  0.67475365  0.85946199  0.76072421    -0.40100
C322        C  0.71155114  0.86789851  0.76856752     0.33300
C323        C  0.68797335  0.78323500  0.81010998     0.01900
F324        F  0.61500234  0.77413537  0.79791668    -0.12400
F325        F  0.74342219  0.89792279  0.75880161    -0.13000
C326        C  0.70985873  0.79368217  0.83187578     0.16800
C327        C  0.71563363  0.76682227  0.84481058     0.26200
C328        C  0.69948095  0.72895042  0.83623114    -0.40100
C329        C  0.67648814  0.71844775  0.81487031     0.33200
C330        C  0.67115016  0.74529467  0.80192803     0.14900
F331        F  0.72571991  0.82991548  0.84056920    -0.12400
F332        F  0.65991899  0.68233253  0.80587670    -0.12900
F333        F  0.73753363  0.77813933  0.86546615    -0.15200
F334        F  0.65068294  0.73444198  0.78066551    -0.13800
F335        F  0.75179292  0.85147287  0.79137113    -0.13800
F336        F  0.60642635  0.81915917  0.76443774    -0.15200
C337        C  0.61403334  0.82908291  0.59569456     0.14900
C338        C  0.64379137  0.82228544  0.58879486     0.01800
C339        C  0.67503913  0.83333401  0.60474156     0.16800
C340        C  0.67711537  0.85177228  0.62695047     0.26200
C341        C  0.64782968  0.85958625  0.63376441    -0.40100
C342        C  0.61602713  0.84764933  0.61793668     0.33300
C343        C  0.64348572  0.80517235  0.56458019     0.01900
F344        F  0.70376679  0.82631399  0.59870388    -0.12400
F345        F  0.58698284  0.85426880  0.62376633    -0.13000
C346        C  0.67284758  0.82612409  0.54749937     0.16800
C347        C  0.67506236  0.80937741  0.52550071     0.26200
C348        C  0.64805602  0.77102089  0.52018074    -0.40100
C349        C  0.61766884  0.75051976  0.53689312     0.33200
C350        C  0.61534892  0.76755168  0.55886656     0.14900
F351        F  0.69985814  0.86283148  0.55235319    -0.12400
F352        F  0.59042961  0.71387725  0.53214652    -0.12900
F353        F  0.70462210  0.83046331  0.50988405    -0.15200
F354        F  0.58645529  0.74684214  0.57499135    -0.13800
F355        F  0.58359155  0.81876473  0.58053250    -0.13800
F356        F  0.70829387  0.86257065  0.64150237    -0.15200
C357        C  0.76891596  0.08956492  0.64537375     0.14900
C358        C  0.80788388  0.10018619  0.64726631     0.01800
C359        C  0.81815942  0.07878011  0.66275112     0.16800
C360        C  0.78993203  0.04674182  0.67548562     0.26200
C361        C  0.75070889  0.03542689  0.67300932    -0.40100
C362        C  0.74076572  0.05782488  0.65816381     0.33300
C363        C  0.83714865  0.13252531  0.63216934     0.01900
F364        F  0.85559698  0.08876875  0.66544507    -0.12400
F365        F  0.70355015  0.04862854  0.65547546    -0.13000
C366        C  0.83967040  0.16854355  0.63297670     0.16800
C367        C  0.86336674  0.19741423  0.61642897     0.26200
C368        C  0.88580703  0.19122599  0.59910206    -0.40100
C369        C  0.88508384  0.15603370  0.59927613     0.33200
C370        C  0.86066401  0.12681525  0.61544031     0.14900
F371        F  0.81865780  0.17557843  0.64960170    -0.12400
F372        F  0.90615125  0.14900045  0.58270125    -0.12900
F373        F  0.86422454  0.23143335  0.61727505    -0.15200
F374        F  0.85837215  0.09220299  0.61372615    -0.13800
F375        F  0.75780129  0.10903451  0.63023473    -0.13800
F376        F  0.80104570  0.02627976  0.68966265    -0.15200
C377        C  0.18588824  0.81546746  0.12743971     0.14900
C378        C  0.18410442  0.84912290  0.13048376     0.01800
C379        C  0.15602400  0.85309513  0.11745208     0.16800
C380        C  0.13089809  0.82443891  0.10125541     0.26200
C381        C  0.13342133  0.79118444  0.09763091    -0.40100
C382        C  0.16101127  0.78693630  0.11116855     0.33300
C383        C  0.21293877  0.88094585  0.14602939     0.01900
F384        F  0.15406561  0.88558621  0.11952769    -0.12400
F385        F  0.16426321  0.75522828  0.10855369    -0.13000
C386        C  0.25232738  0.89712534  0.14095336     0.16800
C387        C  0.27958767  0.92852816  0.15441790     0.26200
C388        C  0.26813581  0.94497197  0.17319717    -0.40100
C389        C  0.22868682  0.92786744  0.17881703     0.33200
C390        C  0.20144884  0.89619641  0.16540263     0.14900
F391        F  0.26443347  0.88351878  0.12215051    -0.12400
F392        F  0.21624682  0.94209000  0.19704345    -0.12900
F393        F  0.31717520  0.94357047  0.14835647    -0.15200
F394        F  0.16372983  0.88044980  0.17130148    -0.13800
F395        F  0.21200176  0.81028367  0.14017225    -0.13800
F396        F  0.10532253  0.83015273  0.08829085    -0.15200
C397        C  0.91142738  0.64786693  0.97273616     0.14900
C398        C  0.89216162  0.66792019  0.97843925     0.01800
C399        C  0.90376589  0.69187025  0.99923967     0.16800
C400        C  0.93523404  0.69706970  0.01338013     0.26200
C401        C  0.95571630  0.67838513  0.00693398    -0.40100
C402        C  0.94259218  0.65279151  0.98688006     0.33300
C403        C  0.86137987  0.66510603  0.96188096     0.01900
F404        F  0.88490074  0.71065407  0.00565968    -0.12400
F405        F  0.96045724  0.63300992  0.98047733    -0.13000
C406        C  0.82990215  0.62930949  0.95589510     0.16800
C407        C  0.80304171  0.62630566  0.93836269     0.26200
C408        C  0.80679464  0.65912651  0.92662025    -0.40100
C409        C  0.83751956  0.69508699  0.93327996     0.33200
C410        C  0.86469086  0.69800647  0.95059992     0.14900
F411        F  0.82534974  0.59710224  0.96689231    -0.12400
F412        F  0.84245627  0.72730895  0.92210564    -0.12900
F413        F  0.77334796  0.59114502  0.93285108    -0.15200
F414        F  0.89535093  0.73287354  0.95541625    -0.13800
F415        F  0.90122995  0.62475085  0.95268529    -0.13800
F416        F  0.94646615  0.72152014  0.03275030    -0.15200
C417        C  0.17101242  0.86045550  0.69754550     0.14900
C418        C  0.14904350  0.82037695  0.69876138     0.01800
C419        C  0.15395273  0.80154719  0.71902439     0.16800
C420        C  0.18057966  0.82209191  0.73744859     0.26200
C421        C  0.20272430  0.86226606  0.73636623    -0.40100
C422        C  0.19739606  0.88122446  0.71622263     0.33300
C423        C  0.12011598  0.79782596  0.67952493     0.01900
F424        F  0.13211629  0.76304690  0.72136749    -0.12400
F425        F  0.21789276  0.91985324  0.71440832    -0.13000
C426        C  0.12029190  0.76656745  0.66820647     0.16800
C427        C  0.08981690  0.74153897  0.65317330     0.26200
C428        C  0.05854360  0.74741585  0.64888123    -0.40100
C429        C  0.05997150  0.78049339  0.65860500     0.33200
C430        C  0.09027152  0.80523032  0.67391638     0.14900
F431        F  0.14945750  0.75946037  0.67242546    -0.12400
F432        F  0.03104375  0.78796186  0.65443527    -0.12900
F433        F  0.09019067  0.71051615  0.64386303    -0.15200
F434        F  0.08903222  0.83501838  0.68455674    -0.13800
F435        F  0.16734227  0.87949506  0.67807337    -0.13800
F436        F  0.18402662  0.80241032  0.75661850    -0.15200
C437        C  0.53203621  0.96074397  0.75518654     0.14900
C438        C  0.49532930  0.93437542  0.74654946     0.01800
C439        C  0.49129135  0.90688923  0.72923688     0.16800
C440        C  0.52350124  0.90574775  0.72051941     0.26200
C441        C  0.56063064  0.93216759  0.72903310    -0.40100
C442        C  0.56444629  0.95967124  0.74657141     0.33300
C443        C  0.46090083  0.93476144  0.75587074     0.01900
F444        F  0.45594124  0.88096758  0.72082602    -0.12400
F445        F  0.59946893  0.98563138  0.75538721    -0.13000
C446        C  0.44822892  0.95778539  0.74462174     0.16800
C447        C  0.41432223  0.95639506  0.75254482     0.26200
C448        C  0.39234377  0.93167685  0.77183034    -0.40100
C449        C  0.40571305  0.90913868  0.78331974     0.33200
C450        C  0.43959923  0.91067438  0.77535175     0.14900
F451        F  0.46837774  0.98109692  0.72562658    -0.12400
F452        F  0.38609187  0.88553745  0.80233144    -0.12900
F453        F  0.40272505  0.97872153  0.74098360    -0.15200
F454        F  0.45151325  0.88831491  0.78652338    -0.13800
F455        F  0.53639574  0.98736098  0.77211106    -0.13800
F456        F  0.51808541  0.87834652  0.70393813    -0.15200
C457        C  0.36015833  0.16363740  0.87140893     0.14900
C458        C  0.32351649  0.13145316  0.86883399     0.01800
C459        C  0.29215765  0.13079699  0.88084309     0.16800
C460        C  0.29768461  0.16109191  0.89612622     0.26200
C461        C  0.33477741  0.19232390  0.89984269    -0.40100
C462        C  0.36575438  0.19380764  0.88673910     0.33300
C463        C  0.31855869  0.09767501  0.85493228     0.01900
F464        F  0.25651273  0.09986170  0.87884656    -0.12400
F465        F  0.40161146  0.22436451  0.88895363    -0.13000
C466        C  0.33715645  0.07797741  0.86290620     0.16800
C467        C  0.33199279  0.04549669  0.85037072     0.26200
C468        C  0.30799447  0.03190100  0.82948012    -0.40100
C469        C  0.28982723  0.05213228  0.82133307     0.33200
C470        C  0.29498259  0.08460769  0.83401425     0.14900
F471        F  0.35955067  0.08962456  0.88335793    -0.12400
F472        F  0.26700761  0.04056873  0.80110248    -0.12900
F473        F  0.34989480  0.02694014  0.85915192    -0.15200
F474        F  0.27716434  0.10352998  0.82576433    -0.13800
F475        F  0.39068996  0.16550613  0.85936118    -0.13800
F476        F  0.26711455  0.15874086  0.90841343    -0.15200
C477        C  0.17893533  0.83643897  0.89403267     0.14900
C478        C  0.19666117  0.82061047  0.90822451     0.01800
C479        C  0.23038971  0.82229313  0.89960758     0.16800
C480        C  0.24673959  0.84043653  0.87723637     0.26200
C481        C  0.22933259  0.85694893  0.86303774    -0.40100
C482        C  0.19489491  0.85422239  0.87160002     0.33300
C483        C  0.17934771  0.80209211  0.93190855     0.01900
F484        F  0.24785029  0.80700504  0.91311670    -0.12400
F485        F  0.17671204  0.86912839  0.85847939    -0.13000
C486        C  0.16215006  0.76236151  0.93442383     0.16800
C487        C  0.14203816  0.74436281  0.95592623     0.26200
C488        C  0.13883660  0.76596787  0.97523534    -0.40100
C489        C  0.15732442  0.80595605  0.97294337     0.33200
C490        C  0.17745003  0.82383544  0.95145745     0.14900
F491        F  0.16342246  0.74087457  0.91559706    -0.12400
F492        F  0.15588592  0.82780803  0.99146897    -0.12900
F493        F  0.12427326  0.70569766  0.95733020    -0.15200
F494        F  0.19479782  0.86242578  0.94957463    -0.13800
F495        F  0.14586657  0.83441056  0.90190674    -0.13800
F496        F  0.27965410  0.84192043  0.86961302    -0.15200
C497        C  0.15504430  0.28235753  0.45416402     0.14900
C498        C  0.15287976  0.31409882  0.46271223     0.01800
C499        C  0.18213070  0.35087797  0.45626960     0.16800
C500        C  0.21207780  0.35593215  0.44065446     0.26200
C501        C  0.21330372  0.32418018  0.43085900    -0.40100
C502        C  0.18499029  0.28730080  0.43843763     0.33300
C503        C  0.11912318  0.30911463  0.47708518     0.01900
F504        F  0.18133248  0.38205471  0.46485886    -0.12400
F505        F  0.18533269  0.25585990  0.42993575    -0.13000
C506        C  0.11065749  0.29186980  0.50047387     0.16800
C507        C  0.07875700  0.28748979  0.51385429     0.26200
C508        C  0.05453936  0.30017304  0.50403333    -0.40100
C509        C  0.06340789  0.31768986  0.48057892     0.33200
C510        C  0.09522459  0.32199034  0.46731029     0.14900
F511        F  0.13351700  0.27954162  0.51045795    -0.12400
F512        F  0.04112587  0.33043986  0.47020755    -0.12900
F513        F  0.07133488  0.27028644  0.53625441    -0.15200
F514        F  0.10225616  0.33805330  0.44453319    -0.13800
F515        F  0.12712850  0.24645929  0.46009339    -0.13800
F516        F  0.23950027  0.39207609  0.43481416    -0.15200
C517        C  0.34156439  0.21551520  0.32991846     0.14900
C518        C  0.31263629  0.19029060  0.31385850     0.01800
C519        C  0.27753530  0.18990727  0.31336457     0.16800
C520        C  0.27220475  0.21592325  0.32753669     0.26200
C521        C  0.30204267  0.24300026  0.34255299    -0.40100
C522        C  0.33627697  0.24144740  0.34425881     0.33300
C523        C  0.32022310  0.16693657  0.29599756     0.01900
F524        F  0.24908339  0.16567892  0.29806916    -0.12400
F525        F  0.36522035  0.26579595  0.35921434    -0.13000
C526        C  0.30160425  0.12699868  0.29801994     0.16800
C527        C  0.30796105  0.10520608  0.28042683     0.26200
C528        C  0.33293067  0.12299837  0.26029410    -0.40100
C529        C  0.35133504  0.16318312  0.25837108     0.33200
C530        C  0.34515185  0.18479199  0.27607927     0.14900
F531        F  0.27738570  0.10912420  0.31714580    -0.12400
F532        F  0.37500170  0.18180808  0.23914279    -0.12900
F533        F  0.28951834  0.06669570  0.28312441    -0.15200
F534        F  0.36286127  0.22331592  0.27345615    -0.13800
F535        F  0.37537074  0.21565784  0.33121852    -0.13800
F536        F  0.23840533  0.21567231  0.32557570    -0.15200
C537        C  0.54517331  0.54535834  0.41431793     0.14900
C538        C  0.50771897  0.53764104  0.41932962     0.01800
C539        C  0.50218204  0.56446170  0.43241492     0.16800
C540        C  0.53364153  0.59876594  0.44028183     0.26200
C541        C  0.57139778  0.60708472  0.43497334    -0.40100
C542        C  0.57679428  0.57984297  0.42197408     0.33300
C543        C  0.47412124  0.50253072  0.40997666     0.01900
F544        F  0.46611544  0.55754048  0.43728430    -0.12400
F545        F  0.61263859  0.58644222  0.41672656    -0.13000
C546        C  0.45865729  0.46827236  0.42333478     0.16800
C547        C  0.42483282  0.43600241  0.41541403     0.26200
C548        C  0.40589002  0.43754456  0.39391879    -0.40100
C549        C  0.42239450  0.47185206  0.38023816     0.33200
C550        C  0.45607252  0.50394362  0.38825546     0.14900
F551        F  0.47581183  0.46642635  0.44441237    -0.12400
F552        F  0.40579267  0.47469256  0.35918084    -0.12900
F553        F  0.41021457  0.40366175  0.42916762    -0.15200
F554        F  0.47085913  0.53676916  0.37497888    -0.13800
F555        F  0.55106487  0.51973039  0.40165501    -0.13800
F556        F  0.52698879  0.62427386  0.45246244    -0.15200
C557        C  0.25725024  0.33214859  0.02425863     0.14900
C558        C  0.21841964  0.31250955  0.01735677     0.01800
C559        C  0.20744881  0.28899416  0.99640599     0.16800
C560        C  0.23474630  0.28455104  0.98289099     0.26200
C561        C  0.27360380  0.30353328  0.99014181    -0.43700
C562        C  0.28455101  0.32794509  0.01077435     0.33300
C563        C  0.18968960  0.31620379  0.03256687     0.01900
F564        F  0.17023869  0.27023189  0.98906329    -0.12400
F565        F  0.32159354  0.34711742  0.01845814    -0.13000
C566        C  0.19449768  0.35246330  0.03744159     0.16800
C567        C  0.17078606  0.35685936  0.05440101     0.26200
C568        C  0.14149704  0.32493333  0.06688045    -0.40100
C569        C  0.13514447  0.28831313  0.06075735     0.33200
C570        C  0.15915815  0.28403858  0.04384875     0.14900
F571        F  0.22288498  0.38388081  0.02612786    -0.12400
F572        F  0.10667899  0.25667443  0.07179800    -0.12900
F573        F  0.17733129  0.39266292  0.05899733    -0.15200
F574        F  0.15381306  0.24861015  0.03950532    -0.13800
F575        F  0.26861774  0.35442031  0.04472971    -0.13800
F576        F  0.22287386  0.26101918  0.96303629    -0.15200
C577        C  0.03389474  0.46287018  0.07725022     0.14900
C578        C  0.06212629  0.50038792  0.08283376     0.01800
C579        C  0.09411592  0.50691494  0.09677957     0.16800
C580        C  0.09756567  0.47628799  0.10561473     0.26200
C581        C  0.06893712  0.43834899  0.10057431    -0.40100
C582        C  0.03729716  0.43202201  0.08594148     0.33300
C583        C  0.05870779  0.53312762  0.07413905     0.01900
F584        F  0.12201466  0.54315042  0.10193461    -0.12400
F585        F  0.00953638  0.39606886  0.08007273    -0.13000
C586        C  0.03719875  0.54559086  0.08762664     0.16800
C587        C  0.03717461  0.57902885  0.08081524     0.26200
C588        C  0.05883608  0.60054500  0.06036801    -0.40100
C589        C  0.07938577  0.58703790  0.04646125     0.33200
C590        C  0.07936268  0.55371680  0.05337819     0.14900
F591        F  0.01721984  0.52596439  0.10787009    -0.12400
F592        F  0.09990282  0.60618158  0.02624012    -0.12900
F593        F  0.01689827  0.59083667  0.09468535    -0.15200
F594        F  0.10010473  0.54183512  0.04005084    -0.13800
F595        F  0.00318667  0.45620528  0.06327467    -0.13800
F596        F  0.12918794  0.48396371  0.11891736    -0.15200
C597        C  0.86395843  0.14339467  0.20725670     0.14900
C598        C  0.87249163  0.18137941  0.20423590     0.01800
C599        C  0.84989776  0.19380388  0.21652994     0.16800
C600        C  0.82043885  0.16928472  0.23246829     0.26200
C601        C  0.81292482  0.13163435  0.23651181    -0.40100
C602        C  0.83444931  0.11872286  0.22319339     0.33300
C603        C  0.90701842  0.20900382  0.19017022     0.01900
F604        F  0.85692595  0.23010675  0.21345104    -0.12400
F605        F  0.82811219  0.08268285  0.22629884    -0.13000
C606        C  0.91090574  0.20415958  0.16487581     0.16800
C607        C  0.94419336  0.23021710  0.15206768     0.26200
C608        C  0.97430109  0.26155432  0.16439742    -0.40100
C609        C  0.97007846  0.26609430  0.18980866     0.33200
C610        C  0.93688855  0.24017717  0.20244751     0.14900
F611        F  0.88227065  0.17439768  0.15254360    -0.12400
F612        F  0.99832218  0.29534627  0.20272361    -0.12900
F613        F  0.94683750  0.22467065  0.12763764    -0.15200
F614        F  0.93431915  0.24503108  0.22700340    -0.13800
F615        F  0.88554796  0.13074997  0.19574968    -0.13800
F616        F  0.79985677  0.18282753  0.24429716    -0.15200
C617        C  0.19218593  0.39892071  0.22782325     0.14900
C618        C  0.20489745  0.37289156  0.23286512     0.01800
C619        C  0.19712989  0.34381205  0.21573582     0.16800
C620        C  0.17590038  0.33997209  0.19442735     0.26200
C621        C  0.16166795  0.36502678  0.18982842    -0.40100
C622        C  0.17071217  0.39500425  0.20661405     0.33300
C623        C  0.22370996  0.37421173  0.25672360     0.01900
F624        F  0.20861946  0.31793631  0.22017539    -0.12400
F625        F  0.15797376  0.42007822  0.20294376    -0.13000
C626        C  0.20463999  0.37133332  0.27904613     0.16800
C627        C  0.22027205  0.36872992  0.30149734     0.26200
C628        C  0.25530153  0.36864434  0.30216288    -0.40100
C629        C  0.27527679  0.37338359  0.27983962     0.33200
C630        C  0.25957472  0.37605985  0.25737875     0.14900
F631        F  0.16986335  0.36927111  0.27905671    -0.12400
F632        F  0.30948064  0.37423553  0.27954876    -0.12900
F633        F  0.20055068  0.36548638  0.32254022    -0.15200
F634        F  0.27922137  0.37999018  0.23618200    -0.13800
F635        F  0.20020471  0.42797574  0.24365210    -0.13800
F636        F  0.16850150  0.31101166  0.17866290    -0.15200
loop_ 
_geom_bond_atom_site_label_1 
_geom_bond_atom_site_label_2 
_geom_bond_distance 
_geom_bond_site_symmetry_2 
_ccdc_geom_bond_type 
O1            C4   1.266       .  A
O1           Cd6   2.471       .  S
C2           O11   1.267       .  A
C2            O7   1.264       .  A
C2          C581   1.485       .  S
O3            C9   1.268       .  A
O3           Cd6   2.500       .  S
C4           O12   1.266       .  A
C4          C621   1.489       .  S
C5           O10   1.268       .  A
C5            O8   1.262       .  A
C5          C608   1.492   1_455  S
Cd6          O13   2.441       .  S
Cd6          O12   2.472       .  S
Cd6          O11   2.480       .  S
Cd6           O7   2.449       .  S
Cd6          O10   2.519       .  S
Cd6           O8   2.443       .  S
C9           O13   1.263       .  A
C9          C568   1.488       .  S
O14          C17   1.265       .  A
O14         Cd19   2.458       .  S
C15          O24   1.265       .  A
C15          O20   1.265       .  A
C15         C628   1.490       .  S
O16          C22   1.264       .  A
O16         Cd19   2.478       .  S
C17          O25   1.268       .  A
C17         C548   1.491       .  S
C18          O23   1.266       .  A
C18          O21   1.264       .  A
C18         C501   1.493       .  S
Cd19         O26   2.497       .  S
Cd19         O25   2.497       .  S
Cd19         O24   2.479       .  S
Cd19         O20   2.487       .  S
Cd19         O23   2.512       .  S
Cd19         O21   2.472       .  S
C22          O26   1.266       .  A
C22         C521   1.493       .  S
O27          C30   1.264       .  A
O27         Cd32   2.458       .  S
C28          O37   1.265       .  A
C28          O33   1.265       .  A
C28         C481   1.484       .  S
O29          C35   1.267       .  A
O29         Cd32   2.498       .  S
C30          O38   1.267       .  A
C30         C448   1.489       .  S
C31          O36   1.268       .  A
C31          O34   1.264       .  A
C31         C421   1.492       .  S
Cd32         O39   2.459       .  S
Cd32         O38   2.489       .  S
Cd32         O37   2.455       .  S
Cd32         O33   2.469       .  S
Cd32         O36   2.513       .  S
Cd32         O34   2.456       .  S
C35          O39   1.263       .  A
C35         C468   1.490   1_565  S
O40          C43   1.263       .  A
O40         Cd45   2.425       .  S
C41          O50   1.263   1_556  A
C41          O46   1.265   1_556  A
C41         C488   1.478       .  S
O42          C48   1.269   1_455  A
O42         Cd45   2.521       .  S
C43          O51   1.269       .  A
C43         C588   1.484       .  S
C44          O49   1.268       .  A
C44          O47   1.264       .  A
C44         C381   1.492       .  S
Cd45         O52   2.435       .  S
Cd45         O51   2.489       .  S
Cd45         O50   2.457       .  S
Cd45         O46   2.458       .  S
Cd45         O49   2.510       .  S
Cd45         O47   2.465       .  S
C48          O52   1.262   1_655  A
C48         C401   1.488       .  S
O53          C56   1.265       .  A
O53         Cd58   2.487       .  S
C54          O63   1.268       .  A
C54          O59   1.265       .  A
C54         C441   1.492       .  S
O55          C61   1.267       .  A
O55         Cd58   2.496       .  S
C56          O64   1.264       .  A
C56         C341   1.488       .  S
C57          O62   1.266       .  A
C57          O60   1.265       .  A
C57         C361   1.493   1_565  S
Cd58         O65   2.463       .  S
Cd58         O64   2.469       .  S
Cd58         O63   2.503       .  S
Cd58         O59   2.462       .  S
Cd58         O62   2.507       .  S
Cd58         O60   2.470       .  S
C61          O65   1.264       .  A
C61         C321   1.485       .  S
O66          C69   1.264       .  A
O66         Cd71   2.449       .  S
C67          O76   1.267       .  A
C67          O72   1.267       .  A
C67         C541   1.487       .  S
O68          C74   1.263       .  A
O68         Cd71   2.454       .  S
C69          O77   1.267       .  A
C69         C348   1.485       .  S
C70          O75   1.265       .  A
C70          O73   1.262       .  A
C70         C301   1.488       .  S
Cd71         O78   2.496       .  S
Cd71         O77   2.490       .  S
Cd71         O76   2.475       .  S
Cd71         O72   2.467       .  S
Cd71         O75   2.496       .  S
Cd71         O73   2.468       .  S
C74          O78   1.265       .  A
C74         C281   1.481       .  S
O79          C82   1.265       .  A
O79         Cd84   2.455       .  S
C80          O89   1.264       .  A
C80          O85   1.266       .  A
C80         C261   1.483       .  S
O81          C87   1.269       .  A
O81         Cd84   2.507   1_455  S
C82          O90   1.268       .  A
C82         C241   1.489       .  S
C83          O88   1.267       .  A
C83          O86   1.264       .  A
C83         C368   1.485       .  S
Cd84         O91   2.454       .  S
Cd84         O90   2.489       .  S
Cd84         O89   2.448       .  S
Cd84         O85   2.471       .  S
Cd84         O88   2.503       .  S
Cd84         O86   2.473       .  S
C87          O91   1.263   1_455  A
C87         C508   1.493       .  S
O92          C95   1.267       .  A
O92         Cd97   2.489       .  S
C93         O102   1.265       .  A
C93          O98   1.265       .  A
C93         C268   1.482       .  S
O94         C100   1.267   1_545  A
O94         Cd97   2.511       .  S
C95         O103   1.264       .  A
C95         C228   1.490       .  S
C96         O101   1.269       .  A
C96          O99   1.264       .  A
C96         C601   1.490       .  S
Cd97        O104   2.455       .  S
Cd97        O103   2.455       .  S
Cd97        O102   2.460       .  S
Cd97         O98   2.465       .  S
Cd97        O101   2.493       .  S
Cd97         O99   2.456       .  S
C100        O104   1.263   1_565  A
C100        C288   1.492       .  S
O105        C108   1.266   1_556  A
O105       Cd110   2.484       .  S
C106        O115   1.267       .  A
C106        O111   1.266       .  A
C106        C188   1.487       .  S
O107        C113   1.267       .  A
O107       Cd110   2.486       .  S
C108        O116   1.263   1_554  A
C108        C208   1.487       .  S
C109        O114   1.267       .  A
C109        O112   1.264       .  A
C109        C561   1.488       .  S
Cd110       O117   2.449       .  S
Cd110       O116   2.455       .  S
Cd110       O115   2.478       .  S
Cd110       O111   2.455       .  S
Cd110       O114   2.488       .  S
Cd110       O112   2.448       .  S
C113        O117   1.265       .  A
C113        C461   1.481       .  S
O118        C121   1.265       .  A
O118       Cd123   2.473       .  S
C119        O128   1.266       .  A
C119        O124   1.264       .  A
C119        C201   1.483       .  S
O120        C126   1.267       .  A
O120       Cd123   2.511   1_565  S
C121        O129   1.267       .  A
C121        C221   1.491       .  S
C122        O127   1.265       .  A
C122        O125   1.268       .  A
C122        C528   1.496       .  S
Cd123       O130   2.475   1_545  S
Cd123       O129   2.492       .  S
Cd123       O128   2.479       .  S
Cd123       O124   2.453       .  S
Cd123       O127   2.471       .  S
Cd123       O125   2.510       .  S
C126        O130   1.263       .  A
C126        C388   1.495       .  S
O131        C134   1.265       .  A
O131       Cd136   2.444       .  S
C132        O141   1.265       .  A
C132        O137   1.264       .  A
C132        C168   1.483       .  S
O133        C139   1.269       .  A
O133       Cd136   2.507       .  S
C134        O142   1.267       .  A
C134        C181   1.480       .  S
C135        O140   1.268       .  A
C135        O138   1.263       .  A
C135        C408   1.484       .  S
Cd136       O143   2.429       .  S
Cd136       O142   2.479       .  S
Cd136       O141   2.462       .  S
Cd136       O137   2.463       .  S
Cd136       O140   2.500       .  S
Cd136       O138   2.450       .  S
C139        O143   1.263       .  A
C139        C328   1.489       .  S
O144        C147   1.265       .  A
O144       Cd149   2.472       .  S
C145        O154   1.265       .  A
C145        O150   1.266       .  A
C145        C248   1.486       .  S
O146        C152   1.269       .  A
O146       Cd149   2.484       .  S
C147        O155   1.263       .  A
C147        C161   1.477       .  S
C148        O153   1.264       .  A
C148        O151   1.264   1_455  A
C148        C428   1.488       .  S
Cd149       O156   2.445       .  S
Cd149       O155   2.449       .  S
Cd149       O154   2.464       .  S
Cd149       O150   2.468       .  S
Cd149       O153   2.472   1_655  S
Cd149       O151   2.478       .  S
C152        O156   1.265       .  A
C152        C308   1.488       .  S
C157        C158   1.404       .  A
C157        C162   1.398       .  A
C157        F175   1.358       .  S
C158        C163   1.477       .  S
C158        C159   1.403       .  A
C159        C160   1.397       .  A
C159        F164   1.358       .  S
C160        C161   1.408       .  A
C160        F176   1.358       .  S
C161        C162   1.408       .  A
C162        F165   1.358       .  S
C163        C166   1.403       .  A
C163        C170   1.403       .  A
C166        C167   1.398       .  A
C166        F171   1.358       .  S
C167        C168   1.410       .  A
C167        F173   1.358       .  S
C168        C169   1.411       .  A
C169        C170   1.398       .  A
C169        F172   1.358       .  S
C170        F174   1.358       .  S
C177        C178   1.404       .  A
C177        C182   1.401       .  A
C177        F195   1.358       .  S
C178        C183   1.478       .  S
C178        C179   1.403       .  A
C179        C180   1.397       .  A
C179        F184   1.358       .  S
C180        C181   1.408       .  A
C180        F196   1.358       .  S
C181        C182   1.409       .  A
C182        F185   1.358       .  S
C183        C186   1.403       .  A
C183        C190   1.402       .  A
C186        C187   1.402       .  A
C186        F191   1.358       .  S
C187        C188   1.412       .  A
C187        F193   1.358       .  S
C188        C189   1.411       .  A
C189        C190   1.397       .  A
C189        F192   1.358       .  S
C190        F194   1.358       .  S
C197        C198   1.404       .  A
C197        C202   1.398       .  A
C197        F215   1.358       .  S
C198        C203   1.482       .  S
C198        C199   1.405       .  A
C199        C200   1.400       .  A
C199        F204   1.358       .  S
C200        C201   1.409       .  A
C200        F216   1.358       .  S
C201        C202   1.409       .  A
C202        F205   1.358       .  S
C203        C206   1.405       .  A
C203        C210   1.404       .  A
C206        C207   1.400       .  A
C206        F211   1.358       .  S
C207        C208   1.410       .  A
C207        F213   1.358       .  S
C208        C209   1.412       .  A
C209        C210   1.398       .  A
C209        F212   1.358       .  S
C210        F214   1.358       .  S
C217        C218   1.404       .  A
C217        C222   1.402       .  A
C217        F235   1.358       .  S
C218        C223   1.483       .  S
C218        C219   1.403       .  A
C219        C220   1.401       .  A
C219        F224   1.358       .  S
C220        C221   1.412       .  A
C220        F236   1.358       .  S
C221        C222   1.411       .  A
C222        F225   1.357       .  S
C223        C226   1.405       .  A
C223        C230   1.403       .  A
C226        C227   1.402       .  A
C226        F231   1.358       .  S
C227        C228   1.411       .  A
C227        F233   1.358       .  S
C228        C229   1.412       .  A
C229        C230   1.399       .  A
C229        F232   1.358       .  S
C230        F234   1.358       .  S
C237        C238   1.404       .  A
C237        C242   1.402       .  A
C237        F255   1.358   1_655  S
C238        C243   1.480       .  S
C238        C239   1.402       .  A
C239        C240   1.398       .  A
C239        F244   1.358       .  S
C240        C241   1.412       .  A
C240        F256   1.358       .  S
C241        C242   1.411       .  A
C242        F245   1.357   1_655  S
C243        C246   1.403       .  A
C243        C250   1.403       .  A
C246        C247   1.398       .  A
C246        F251   1.358       .  S
C247        C248   1.410       .  A
C247        F253   1.358       .  S
C248        C249   1.412       .  A
C249        C250   1.400       .  A
C249        F252   1.358       .  S
C250        F254   1.358       .  S
C257        C258   1.404       .  A
C257        C262   1.399       .  A
C257        F275   1.358       .  S
C258        C263   1.478       .  S
C258        C259   1.403       .  A
C259        C260   1.398       .  A
C259        F264   1.358       .  S
C260        C261   1.411       .  A
C260        F276   1.358       .  S
C261        C262   1.410       .  A
C262        F265   1.358       .  S
C263        C266   1.404       .  A
C263        C270   1.403       .  A
C266        C267   1.399       .  A
C266        F271   1.358       .  S
C267        C268   1.410       .  A
C267        F273   1.358       .  S
C268        C269   1.409       .  A
C269        C270   1.397       .  A
C269        F272   1.358       .  S
C270        F274   1.358       .  S
C277        C278   1.405       .  A
C277        C282   1.399       .  A
C277        F295   1.358       .  S
C278        C283   1.485       .  S
C278        C279   1.406       .  A
C279        C280   1.402       .  A
C279        F284   1.358       .  S
C280        C281   1.408       .  A
C280        F296   1.358       .  S
C281        C282   1.407       .  A
C282        F285   1.358       .  S
C283        C286   1.404       .  A
C283        C290   1.405       .  A
C286        C287   1.397       .  A
C286        F291   1.358       .  S
C287        C288   1.412       .  A
C287        F293   1.358       .  S
C288        C289   1.412       .  A
C289        C290   1.405       .  A
C289        F292   1.357       .  S
C290        F294   1.358       .  S
C297        C298   1.404       .  A
C297        C302   1.401       .  A
C297        F315   1.358       .  S
C298        C303   1.482       .  S
C298        C299   1.403       .  A
C299        C300   1.399       .  A
C299        F304   1.358       .  S
C300        C301   1.412       .  A
C300        F316   1.358       .  S
C301        C302   1.410       .  A
C302        F305   1.358       .  S
C303        C306   1.404       .  A
C303        C310   1.403       .  A
C306        C307   1.402       .  A
C306        F311   1.358       .  S
C307        C308   1.411       .  A
C307        F313   1.357       .  S
C308        C309   1.412       .  A
C309        C310   1.398       .  A
C309        F312   1.358       .  S
C310        F314   1.358       .  S
C317        C318   1.407       .  A
C317        C322   1.403       .  A
C317        F335   1.358       .  S
C318        C323   1.488       .  S
C318        C319   1.406       .  A
C319        C320   1.399       .  A
C319        F324   1.358       .  S
C320        C321   1.408       .  A
C320        F336   1.358       .  S
C321        C322   1.409       .  A
C322        F325   1.358       .  S
C323        C326   1.408       .  A
C323        C330   1.404       .  A
C326        C327   1.405       .  A
C326        F331   1.358       .  S
C327        C328   1.411       .  A
C327        F333   1.358       .  S
C328        C329   1.411       .  A
C329        C330   1.395       .  A
C329        F332   1.358       .  S
C330        F334   1.358       .  S
C337        C338   1.404       .  A
C337        C342   1.402       .  A
C337        F355   1.358       .  S
C338        C343   1.482       .  S
C338        C339   1.404       .  A
C339        C340   1.398       .  A
C339        F344   1.358       .  S
C340        C341   1.410       .  A
C340        F356   1.358       .  S
C341        C342   1.412       .  A
C342        F345   1.358       .  S
C343        C346   1.403       .  A
C343        C350   1.405       .  A
C346        C347   1.397       .  A
C346        F351   1.358       .  S
C347        C348   1.410       .  A
C347        F353   1.358       .  S
C348        C349   1.410       .  A
C349        C350   1.403       .  A
C349        F352   1.358       .  S
C350        F354   1.358       .  S
C357        C358   1.407       .  A
C357        C362   1.399       .  A
C357        F375   1.358       .  S
C358        C363   1.493       .  S
C358        C359   1.407       .  A
C359        C360   1.405       .  A
C359        F364   1.358       .  S
C360        C361   1.412       .  A
C360        F376   1.358       .  S
C361        C362   1.410       .  A
C362        F365   1.358       .  S
C363        C366   1.408       .  A
C363        C370   1.409       .  A
C366        C367   1.402       .  A
C366        F371   1.358       .  S
C367        C368   1.408       .  A
C367        F373   1.358       .  S
C368        C369   1.407       .  A
C369        C370   1.403       .  A
C369        F372   1.358       .  S
C370        F374   1.358       .  S
C377        C378   1.406       .  A
C377        C382   1.401       .  A
C377        F395   1.358       .  S
C378        C383   1.492       .  S
C378        C379   1.408       .  A
C379        C380   1.404       .  A
C379        F384   1.358       .  S
C380        C381   1.410       .  A
C380        F396   1.358       .  S
C381        C382   1.411       .  A
C382        F385   1.358       .  S
C383        C386   1.406       .  A
C383        C390   1.407       .  A
C386        C387   1.401       .  A
C386        F391   1.358       .  S
C387        C388   1.412       .  A
C387        F393   1.358       .  S
C388        C389   1.411       .  A
C389        C390   1.405       .  A
C389        F392   1.357       .  S
C390        F394   1.358       .  S
C397        C398   1.405       .  A
C397        C402   1.397       .  A
C397        F415   1.358       .  S
C398        C403   1.488       .  S
C398        C399   1.407       .  A
C399        C400   1.404   1_556  A
C399        F404   1.358   1_556  S
C400        C401   1.409       .  A
C400        F416   1.357       .  S
C401        C402   1.411   1_554  A
C402        F405   1.358       .  S
C403        C406   1.406       .  A
C403        C410   1.408       .  A
C406        C407   1.399       .  A
C406        F411   1.358       .  S
C407        C408   1.409       .  A
C407        F413   1.358       .  S
C408        C409   1.407       .  A
C409        C410   1.402       .  A
C409        F412   1.358       .  S
C410        F414   1.358       .  S
C417        C418   1.407       .  A
C417        C422   1.405       .  A
C417        F435   1.358       .  S
C418        C423   1.490       .  S
C418        C419   1.406       .  A
C419        C420   1.398       .  A
C419        F424   1.358       .  S
C420        C421   1.411       .  A
C420        F436   1.358       .  S
C421        C422   1.411       .  A
C422        F425   1.357       .  S
C423        C426   1.407       .  A
C423        C430   1.407       .  A
C426        C427   1.399       .  A
C426        F431   1.358       .  S
C427        C428   1.410       .  A
C427        F433   1.358       .  S
C428        C429   1.411       .  A
C429        C430   1.401       .  A
C429        F432   1.358       .  S
C430        F434   1.358       .  S
C437        C438   1.403       .  A
C437        C442   1.404       .  A
C437        F455   1.358       .  S
C438        C443   1.480       .  S
C438        C439   1.401       .  A
C439        C440   1.399       .  A
C439        F444   1.358       .  S
C440        C441   1.413       .  A
C440        F456   1.358       .  S
C441        C442   1.412       .  A
C442        F445   1.357       .  S
C443        C446   1.403       .  A
C443        C450   1.402       .  A
C446        C447   1.402       .  A
C446        F451   1.358       .  S
C447        C448   1.411       .  A
C447        F453   1.358       .  S
C448        C449   1.412       .  A
C449        C450   1.400       .  A
C449        F452   1.358       .  S
C450        F454   1.358       .  S
C457        C458   1.405       .  A
C457        C462   1.398       .  A
C457        F475   1.358       .  S
C458        C463   1.483       .  S
C458        C459   1.406       .  A
C459        C460   1.402       .  A
C459        F464   1.358       .  S
C460        C461   1.408       .  A
C460        F476   1.358       .  S
C461        C462   1.408       .  A
C462        F465   1.358       .  S
C463        C466   1.404       .  A
C463        C470   1.404       .  A
C466        C467   1.399       .  A
C466        F471   1.358       .  S
C467        C468   1.412       .  A
C467        F473   1.358       .  S
C468        C469   1.411       .  A
C469        C470   1.403       .  A
C469        F472   1.357       .  S
C470        F474   1.358       .  S
C477        C478   1.402       .  A
C477        C482   1.396       .  A
C477        F495   1.358       .  S
C478        C483   1.475       .  S
C478        C479   1.402       .  A
C479        C480   1.400       .  A
C479        F484   1.358       .  S
C480        C481   1.412       .  A
C480        F496   1.358       .  S
C481        C482   1.410       .  A
C482        F485   1.358       .  S
C483        C486   1.402       .  A
C483        C490   1.403       .  A
C486        C487   1.398       .  A
C486        F491   1.358       .  S
C487        C488   1.410       .  A
C487        F493   1.358       .  S
C488        C489   1.407       .  A
C489        C490   1.397       .  A
C489        F492   1.358       .  S
C490        F494   1.358       .  S
C497        C498   1.406       .  A
C497        C502   1.405       .  A
C497        F515   1.358       .  S
C498        C503   1.488       .  S
C498        C499   1.404       .  A
C499        C500   1.400       .  A
C499        F504   1.358       .  S
C500        C501   1.412       .  A
C500        F516   1.358       .  S
C501        C502   1.412       .  A
C502        F505   1.358       .  S
C503        C506   1.405       .  A
C503        C510   1.405       .  A
C506        C507   1.405       .  A
C506        F511   1.357       .  S
C507        C508   1.411       .  A
C507        F513   1.357       .  S
C508        C509   1.413       .  A
C509        C510   1.400       .  A
C509        F512   1.358       .  S
C510        F514   1.358       .  S
C517        C518   1.405       .  A
C517        C522   1.403       .  A
C517        F535   1.358       .  S
C518        C523   1.486       .  S
C518        C519   1.403       .  A
C519        C520   1.402       .  A
C519        F524   1.358       .  S
C520        C521   1.413       .  A
C520        F536   1.358       .  S
C521        C522   1.411       .  A
C522        F525   1.358       .  S
C523        C526   1.404       .  A
C523        C530   1.403       .  A
C526        C527   1.405       .  A
C526        F531   1.357       .  S
C527        C528   1.413       .  A
C527        F533   1.357       .  S
C528        C529   1.413       .  A
C529        C530   1.401       .  A
C529        F532   1.358       .  S
C530        F534   1.358       .  S
C537        C538   1.403       .  A
C537        C542   1.403       .  A
C537        F555   1.358       .  S
C538        C543   1.479       .  S
C538        C539   1.402       .  A
C539        C540   1.399       .  A
C539        F544   1.358       .  S
C540        C541   1.410       .  A
C540        F556   1.358       .  S
C541        C542   1.412       .  A
C542        F545   1.358       .  S
C543        C546   1.403       .  A
C543        C550   1.401       .  A
C546        C547   1.403       .  A
C546        F551   1.358       .  S
C547        C548   1.412       .  A
C547        F553   1.357       .  S
C548        C549   1.412       .  A
C549        C550   1.399       .  A
C549        F552   1.358       .  S
C550        F554   1.358       .  S
C557        C558   1.405       .  A
C557        C562   1.397       .  A
C557        F575   1.358       .  S
C558        C563   1.485       .  S
C558        C559   1.405   1_554  A
C559        C560   1.402       .  A
C559        F564   1.358       .  S
C560        C561   1.411       .  A
C560        F576   1.357       .  S
C561        C562   1.411   1_556  A
C562        F565   1.358       .  S
C563        C566   1.404       .  A
C563        C570   1.407       .  A
C566        C567   1.397       .  A
C566        F571   1.358       .  S
C567        C568   1.412       .  A
C567        F573   1.358       .  S
C568        C569   1.410       .  A
C569        C570   1.402       .  A
C569        F572   1.357       .  S
C570        F574   1.358       .  S
C577        C578   1.402       .  A
C577        C582   1.401       .  A
C577        F595   1.358       .  S
C578        C583   1.473       .  S
C578        C579   1.400       .  A
C579        C580   1.396       .  A
C579        F584   1.358       .  S
C580        C581   1.412       .  A
C580        F596   1.358       .  S
C581        C582   1.412       .  A
C582        F585   1.358       .  S
C583        C586   1.403       .  A
C583        C590   1.400       .  A
C586        C587   1.401       .  A
C586        F591   1.358       .  S
C587        C588   1.410       .  A
C587        F593   1.357       .  S
C588        C589   1.413       .  A
C589        C590   1.397       .  A
C589        F592   1.358       .  S
C590        F594   1.358       .  S
C597        C598   1.405       .  A
C597        C602   1.403       .  A
C597        F615   1.357       .  S
C598        C603   1.486       .  S
C598        C599   1.405       .  A
C599        C600   1.400       .  A
C599        F604   1.358       .  S
C600        C601   1.412       .  A
C600        F616   1.358       .  S
C601        C602   1.410       .  A
C602        F605   1.357       .  S
C603        C606   1.406       .  A
C603        C610   1.403       .  A
C606        C607   1.405       .  A
C606        F611   1.358       .  S
C607        C608   1.411       .  A
C607        F613   1.358       .  S
C608        C609   1.412       .  A
C609        C610   1.397       .  A
C609        F612   1.358       .  S
C610        F614   1.358       .  S
C617        C618   1.406       .  A
C617        C622   1.401       .  A
C617        F635   1.358       .  S
C618        C623   1.488       .  S
C618        C619   1.406       .  A
C619        C620   1.400       .  A
C619        F624   1.358       .  S
C620        C621   1.411       .  A
C620        F636   1.358       .  S
C621        C622   1.411       .  A
C622        F625   1.358       .  S
C623        C626   1.406       .  A
C623        C630   1.406       .  A
C626        C627   1.400       .  A
C626        F631   1.358       .  S
C627        C628   1.410       .  A
C627        F633   1.358       .  S
C628        C629   1.412       .  A
C629        C630   1.402       .  A
C629        F632   1.358       .  S
C630        F634   1.358       .  S
