geometry optimzed in LAMMPS
_audit_creation_date              2020-12-01 
_audit_creation_method            'lammps2cif' 
_symmetry_space_group_name_H-M    'P1' 
_symmetry_Int_Tables_number       1 
_symmetry_cell_setting            triclinic 
loop_ 
_symmetry_equiv_pos_as_xyz 
  x,y,z 
_cell_length_a                    46.27862713 
_cell_length_b                    46.60818573894969 
_cell_length_c                    33.913375017220055 
_cell_angle_alpha                 90.16674020563687 
_cell_angle_beta                  90.02126458714264 
_cell_angle_gamma                 89.75232027729008 
loop_ 
_atom_site_label 
_atom_site_type_symbol 
_atom_site_fract_x 
_atom_site_fract_y 
_atom_site_fract_z 
_atom_site_charge 
In1        In  0.82985219  0.71370415  0.15716509     1.36900
C2          C  0.77397191  0.72189195  0.14434397     0.79500
O3          O  0.82491010  0.71502416  0.22240894    -0.59000
O4          O  0.84336494  0.75158046  0.19430691    -0.49900
C5          C  0.86988716  0.67535228  0.17450325     0.72100
O6          O  0.84332214  0.66850303  0.17369131    -0.44700
C7          C  0.84130521  0.72006249  0.08149367     0.76900
O8          O  0.78413267  0.69733986  0.15298253    -0.56600
O9          O  0.84546980  0.74001768  0.10637830    -0.46700
O10         O  0.79210344  0.74199809  0.14483906    -0.53000
C11         C  0.83603005  0.73959092  0.22627397     0.87000
O12         O  0.87535935  0.70093521  0.16484019    -0.54900
O13         O  0.83344082  0.69639301  0.09587175    -0.58200
In14       In  0.64725486  0.76223463  0.09273041     1.36900
C15         C  0.70330430  0.75650329  0.10783692     0.79500
O16         O  0.64406515  0.77232131  0.15626690    -0.59000
O17         O  0.62961934  0.73122627  0.13576670    -0.49900
C18         C  0.60645832  0.80096861  0.07803074     0.72100
O19         O  0.63307989  0.80727795  0.07604357    -0.44700
C20         C  0.64260863  0.73748544  0.02357189     0.76900
O21         O  0.69173230  0.78100107  0.10318027    -0.56600
O22         O  0.63609882  0.72443260  0.05491173    -0.46700
O23         O  0.68666878  0.73561721  0.10198680    -0.53000
C24         C  0.63482198  0.74758982  0.16470639     0.87000
O25         O  0.60125520  0.77579269  0.08954535    -0.54900
O26         O  0.65228535  0.76257837  0.02805060    -0.58200
In27       In  0.82883044  0.76969831  0.40934246     1.36900
C28         C  0.77311940  0.76227774  0.39434595     0.79500
O29         O  0.83283983  0.77572534  0.34438094    -0.59000
O30         O  0.84360836  0.73471302  0.36895387    -0.49900
C31         C  0.87163949  0.80664286  0.41754339     0.72100
O32         O  0.84548086  0.81507048  0.41630216    -0.44700
C33         C  0.83147833  0.75681796  0.48500204     0.76900
O34         O  0.78441407  0.78709590  0.39565617    -0.56600
O35         O  0.84153055  0.74006011  0.45873933    -0.46700
O36         O  0.78990879  0.74191122  0.40349705    -0.53000
C37         C  0.83994527  0.74982194  0.33823763     0.87000
O38         O  0.87541852  0.78005910  0.41217371    -0.54900
O39         O  0.81903040  0.77907658  0.47215464    -0.58200
In40       In  0.64583024  0.71987095  0.34532269     1.36900
C41         C  0.70190635  0.72627533  0.36185522     0.79500
O42         O  0.65170283  0.71822304  0.28070371    -0.59000
O43         O  0.63434233  0.75661757  0.30612293    -0.49900
C44         C  0.60686488  0.67955307  0.32959382     0.72100
O45         O  0.63370197  0.67382047  0.33020015    -0.44700
C46         C  0.62956976  0.73793411  0.41493447     0.76900
O47         O  0.69037535  0.70170366  0.35914148    -0.56600
O48         O  0.62555589  0.75259529  0.38414512    -0.46700
O49         O  0.68522745  0.74683053  0.35376612    -0.53000
C50         C  0.64131421  0.74299930  0.27533061     0.87000
O51         O  0.60049194  0.70495799  0.33918459    -0.54900
O52         O  0.63978701  0.71301130  0.40958150    -0.64600
In53       In  0.51339922  0.89486534  0.02228626     1.36900
C54         C  0.50357148  0.95084143  0.01017496     0.79500
O55         O  0.51204708  0.89274361  0.46161683    -0.59000
O56         O  0.47124982  0.87660974  0.48081858    -0.49900
C57         C  0.56050723  0.86367371  0.03822200     0.72100
O58         O  0.56179768  0.89025879  0.03111171    -0.44700
C59         C  0.48741717  0.88601218  0.09026971     0.76900
O60         O  0.52853138  0.94091426  0.01698826    -0.56600
O61         O  0.47632822  0.87825014  0.05805102    -0.46700
O62         O  0.48383915  0.93240174  0.01093523    -0.53000
C63         C  0.48795860  0.88202640  0.45238722     0.87000
O64         O  0.53554579  0.85311152  0.03506991    -0.54900
O65         O  0.51111951  0.89911492  0.08747926    -0.58200
In66       In  0.45617599  0.07934209  0.47155341     1.36900
C67         C  0.46109438  0.02359964  0.48301213     0.79500
O68         O  0.45895049  0.07360038  0.40650591    -0.59000
O69         O  0.49479148  0.09291132  0.43586895    -0.49900
C70         C  0.41793226  0.11935164  0.45517491     0.72100
O71         O  0.41135066  0.09294631  0.45405349    -0.44700
C72         C  0.46623595  0.08873305  0.04823621     0.76900
O73         O  0.43687106  0.03513019  0.47531332    -0.56600
O74         O  0.48593007  0.09328496  0.02303628    -0.46700
O75         O  0.48236626  0.04039094  0.48254001    -0.53000
C76         C  0.48363568  0.08486031  0.40358556     0.87000
O77         O  0.44346975  0.12482825  0.46589369    -0.54900
O78         O  0.44215875  0.08104917  0.03436205    -0.58200
In79       In  0.46326320  0.89264739  0.27139799     1.36900
C80         C  0.47349338  0.94817948  0.26066353     0.79500
O81         O  0.46194101  0.89816488  0.33581630    -0.59000
O82         O  0.49880747  0.87702656  0.31092494    -0.49900
C83         C  0.41758461  0.86062834  0.28750799     0.72100
O84         O  0.41527479  0.88715954  0.28023898    -0.44700
C85         C  0.47886294  0.87726985  0.20000858     0.76900
O86         O  0.44815864  0.93820807  0.26263922    -0.56600
O87         O  0.49406136  0.87135457  0.22983657    -0.46700
O88         O  0.49328966  0.93000594  0.26604477    -0.53000
C89         C  0.48574493  0.88553868  0.34155059     0.87000
O90         O  0.44281764  0.85048023  0.28389803    -0.54900
O91         O  0.45457154  0.88845828  0.20725994    -0.58200
In92       In  0.51772859  0.07461252  0.22224918     1.36900
C93         C  0.51125504  0.01914786  0.23611480     0.79500
O94         O  0.52264227  0.08002502  0.28739631    -0.59000
O95         O  0.48197204  0.09042616  0.26094446    -0.49900
C96         C  0.55695740  0.11467694  0.21055028     0.72100
O97         O  0.56396512  0.08836503  0.21284820    -0.44700
C98         C  0.50268381  0.07763695  0.14752645     0.76900
O99         O  0.53595422  0.03088400  0.23711128    -0.56600
O100        O  0.48657072  0.08762100  0.17457257    -0.46700
O101        O  0.49077542  0.03548163  0.22595531    -0.53000
C102        C  0.49652773  0.08734505  0.29231590     0.87000
O103        O  0.53069750  0.12018115  0.21737485    -0.54900
O104        O  0.52525257  0.06495899  0.15914004    -0.58200
In105      In  0.65033057  0.26602565  0.40538522     1.36900
C106        C  0.70688797  0.25659381  0.39554066     0.79500
O107        O  0.65373322  0.26158899  0.47105054    -0.59000
O108        O  0.63157987  0.22886018  0.43949560    -0.49900
C109        C  0.61760499  0.31119747  0.42372080     0.72100
O110        O  0.64474232  0.31307943  0.41960103    -0.44700
C111        C  0.63777536  0.25689653  0.32975291     0.76900
O112        O  0.69675746  0.28129782  0.40293873    -0.56600
O113        O  0.63487582  0.23777601  0.35581309    -0.46700
O114        O  0.68834112  0.23695547  0.39505740    -0.53000
C115        C  0.63994701  0.23831578  0.47256719     0.87000
O116        O  0.60736335  0.28653565  0.41691800    -0.54900
O117        O  0.64443787  0.28129659  0.34289077    -0.58200
In118      In  0.83566397  0.21310097  0.35620176     1.36900
C119        C  0.77902293  0.22048165  0.36687210     0.79500
O120        O  0.84038933  0.19837793  0.41855811    -0.59000
O121        O  0.84953356  0.24217098  0.40512128    -0.49900
C122        C  0.87457676  0.17286344  0.33990990     0.72100
O123        O  0.84770276  0.16743002  0.33915431    -0.44700
C124        C  0.84448531  0.23930073  0.28810169     0.76900
O125        O  0.78982741  0.19597109  0.35954054    -0.56600
O126        O  0.85184034  0.25058044  0.32055187    -0.46700
O127        O  0.79693589  0.24073060  0.36667867    -0.53000
C128        C  0.84657632  0.22307679  0.43130172     0.87000
O129        O  0.88095591  0.19795330  0.35099882    -0.54900
O130        O  0.83199992  0.21536912  0.29091977    -0.58200
In131      In  0.83439279  0.26329260  0.10498969     1.36900
C132        C  0.77851752  0.25280777  0.11579990     0.79500
O133        O  0.83044678  0.26190953  0.03956087    -0.59000
O134        O  0.85244779  0.22735726  0.06780861    -0.49900
C135        C  0.86412940  0.31018892  0.08787831     0.72100
O136        O  0.83709006  0.31099158  0.09323189    -0.44700
C137        C  0.85041010  0.24801684  0.17705802     0.76900
O138        O  0.78845938  0.27800748  0.11566342    -0.56600
O139        O  0.85565522  0.23279169  0.14708406    -0.46700
O140        O  0.79679636  0.23350810  0.10834194    -0.53000
C141        C  0.84414336  0.23857792  0.03588045     0.87000
O142        O  0.87567739  0.28593603  0.09349329    -0.54900
O143        O  0.83944423  0.27223001  0.16976330    -0.58200
In144      In  0.65343560  0.20298118  0.15543407     1.36900
C145        C  0.70868890  0.21294834  0.14081455     0.79500
O146        O  0.64690630  0.19691720  0.09049814    -0.59000
O147        O  0.63416736  0.23678094  0.11616518    -0.49900
C148        C  0.62035457  0.15785310  0.16874877     0.72100
O149        O  0.64676380  0.15519183  0.15960554    -0.44700
C150        C  0.64964923  0.21956571  0.23022993     0.76900
O151        O  0.69865515  0.18772525  0.14181430    -0.56600
O152        O  0.63740029  0.23354901  0.20284434    -0.46700
O153        O  0.69082713  0.23248251  0.14937136    -0.53000
C154        C  0.63802053  0.22222747  0.08502883     0.87000
O155        O  0.61071215  0.18326835  0.16783202    -0.54900
O156        O  0.66448713  0.19832870  0.21888183    -0.58200
In157      In  0.15394999  0.76981104  0.15759706     1.36900
C158        C  0.20853015  0.75907304  0.14165930     0.79500
O159        O  0.16518296  0.77682136  0.22062199    -0.59000
O160        O  0.14122436  0.73903555  0.20592374    -0.49900
C161        C  0.11147197  0.80608993  0.17035870     0.72100
O162        O  0.13744437  0.81480949  0.16762859    -0.44700
C163        C  0.14203571  0.76018489  0.08257508     0.76900
O164        O  0.19942643  0.78449018  0.14789946    -0.56600
O165        O  0.13853254  0.74097768  0.10878896    -0.46700
O166        O  0.19002874  0.73943793  0.14626159    -0.53000
C167        C  0.15214203  0.75474831  0.23280138     0.87000
O168        O  0.10774544  0.77948666  0.16477161    -0.54900
O169        O  0.14991348  0.78446121  0.09538643    -0.58200
In170      In  0.33260620  0.70988152  0.09169130     1.36900
C171        C  0.27694199  0.72026616  0.10532018     0.79500
O172        O  0.33761865  0.70060459  0.15577481    -0.59000
O173        O  0.35378817  0.74017814  0.13364011    -0.49900
C174        C  0.36510440  0.66431859  0.07476155     0.72100
O175        O  0.33829659  0.66218499  0.08146498    -0.44700
C176        C  0.33976723  0.73420420  0.02273760     0.76900
O177        O  0.28648337  0.69510484  0.09966733    -0.56600
O178        O  0.34901136  0.74572367  0.05399014    -0.46700
O179        O  0.29544928  0.73974710  0.10144487    -0.53000
C180        C  0.34847915  0.72479922  0.16330865     0.87000
O181        O  0.37513228  0.68932451  0.07876115    -0.54900
O182        O  0.32624180  0.71098104  0.02717165    -0.58200
In183      In  0.15387942  0.70646502  0.40735337     1.36900
C184        C  0.20930372  0.71605457  0.39263863     0.79500
O185        O  0.14684388  0.69322225  0.34479527    -0.59000
O186        O  0.13860520  0.73696901  0.36006560    -0.49900
C187        C  0.11896323  0.66300095  0.42225206     0.72100
O188        O  0.14585321  0.65937970  0.41680665    -0.44700
C189        C  0.14897042  0.72506082  0.48104709     0.76900
O190        O  0.19954529  0.69104110  0.39855003    -0.56600
O191        O  0.13597283  0.73772484  0.45298232    -0.46700
O192        O  0.19100719  0.73602936  0.39654291    -0.53000
C193        C  0.14081064  0.71818109  0.33301226     0.87000
O194        O  0.11005910  0.68854896  0.41804861    -0.54900
O195        O  0.16515500  0.70454528  0.47069463    -0.58200
In196      In  0.33621404  0.75702154  0.34377057     1.36900
C197        C  0.27988951  0.75157199  0.35809997     0.79500
O198        O  0.33153025  0.75680270  0.27855061    -0.59000
O199        O  0.35052628  0.72009174  0.30580380    -0.49900
C200        C  0.37484484  0.79774136  0.33065842     0.72100
O201        O  0.34798102  0.80267540  0.32751007    -0.44700
C202        C  0.34836460  0.73981030  0.41521734     0.76900
O203        O  0.29167413  0.77598807  0.35533196    -0.56600
O204        O  0.35418390  0.72465150  0.38527053    -0.46700
O205        O  0.29641065  0.73073340  0.35059473    -0.53000
C206        C  0.34311955  0.73242165  0.27426192     0.87000
O207        O  0.38130590  0.77305071  0.34299523    -0.54900
O208        O  0.33889681  0.76475914  0.40820099    -0.58200
In209      In  0.01403622  0.08095006  0.03159804     1.36900
C210        C  0.00841883  0.02480362  0.01851190     0.79500
O211        O  0.01327838  0.07483845  0.09694600    -0.59000
O212        O  0.97822792  0.09744684  0.07050396    -0.49900
C213        C  0.05865581  0.11480248  0.04729524     0.72100
O214        O  0.06195837  0.08836548  0.03992442    -0.44700
C215        C  0.01984397  0.09237149  0.45467276     0.76900
O216        O  0.03290548  0.03637269  0.02255842    -0.56600
O217        O  0.00115397  0.09640146  0.48133960    -0.46700
O218        O  0.98736845  0.04157792  0.02348165    -0.53000
C219        C  0.98989743  0.08843654  0.10178341     0.87000
O220        O  0.03297771  0.12382841  0.04429379    -0.54900
O221        O  0.04391214  0.08293487  0.46640187    -0.58200
In222      In  0.96846656  0.89743316  0.46813961     1.36900
C223        C  0.98005411  0.95290261  0.48007235     0.79500
O224        O  0.95676826  0.88916888  0.03505488    -0.59000
O225        O  0.99731668  0.87620975  0.01108771    -0.49900
C226        C  0.92056403  0.86875153  0.45058888     0.72100
O227        O  0.92037813  0.89552783  0.45685118    -0.44700
C228        C  0.99423463  0.88576957  0.40099163     0.76900
O229        O  0.95476116  0.94398332  0.47347370    -0.56600
O230        O  0.00411049  0.87671214  0.43331734    -0.46700
O231        O  0.99926354  0.93378216  0.47848855    -0.53000
C232        C  0.98162068  0.87892814  0.04123934     0.87000
O233        O  0.94491147  0.85681322  0.45497971    -0.54900
O234        O  0.97195336  0.90135101  0.40335797    -0.58200
In235      In  0.01189885  0.89359226  0.22006794     1.36900
C236        C  0.99246785  0.94689694  0.23186211     0.79500
O237        O  0.01055013  0.89729249  0.15515950    -0.59000
O238        O  0.97803592  0.87207833  0.18325163    -0.49900
C239        C  0.06155357  0.86769535  0.20308743     0.72100
O240        O  0.05976690  0.89476475  0.20581215    -0.44700
C241        C  0.00038711  0.87634648  0.29194233     0.76900
O242        O  0.01916250  0.94080356  0.23311230    -0.56600
O243        O  0.98568270  0.86809845  0.26270991    -0.46700
O244        O  0.97643731  0.92627587  0.22247034    -0.53000
C245        C  0.98857968  0.88150791  0.15147585     0.87000
O246        O  0.03850597  0.85448957  0.21096817    -0.54900
O247        O  0.02216623  0.89137705  0.28383022    -0.58200
In248      In  0.96503906  0.07750418  0.28372911     1.36900
C249        C  0.98311825  0.02406231  0.27076989     0.79500
O250        O  0.95732669  0.08276195  0.21948923    -0.59000
O251        O  0.99669638  0.09896021  0.24359075    -0.49900
C252        C  0.91831245  0.10886960  0.29862063     0.72100
O253        O  0.91659809  0.08222834  0.29102456    -0.44700
C254        C  0.98065223  0.08346965  0.35753034     0.76900
O255        O  0.95659267  0.03090804  0.26798996    -0.56600
O256        O  0.99431571  0.09579765  0.32995604    -0.46700
O257        O  0.99942046  0.04396051  0.28227601    -0.53000
C258        C  0.98188503  0.09350314  0.21310365     0.87000
O259        O  0.94339991  0.11928859  0.29547501    -0.54900
O260        O  0.96010152  0.06746294  0.34686032    -0.58200
In261      In  0.47197526  0.58327827  0.02349917     1.36900
C262        C  0.47815581  0.52701939  0.01285137     0.79500
O263        O  0.45843670  0.58458641  0.45899858    -0.59000
O264        O  0.49798731  0.60097577  0.48225953    -0.49900
C265        C  0.43038768  0.62157473  0.03586578     0.72100
O266        O  0.42556139  0.59488130  0.03843512    -0.44700
C267        C  0.49686637  0.59112181  0.09235339     0.76900
O268        O  0.45344335  0.53862803  0.01587733    -0.56600
O269        O  0.50966347  0.59692766  0.06053497    -0.46700
O270        O  0.49902157  0.54389844  0.01751927    -0.53000
C271        C  0.48292434  0.59537649  0.45220516     0.87000
O272        O  0.45556203  0.62803515  0.02490672    -0.54900
O273        O  0.47178186  0.58096833  0.08866978    -0.58200
In274      In  0.51185946  0.39558120  0.47208068     1.36900
C275        C  0.50678946  0.45187156  0.48389468     0.79500
O276        O  0.51260727  0.40029699  0.40689089    -0.59000
O277        O  0.47436711  0.38368102  0.43334712    -0.49900
C278        C  0.55163742  0.35539446  0.45841417     0.72100
O279        O  0.55794681  0.38186319  0.45823755    -0.44700
C280        C  0.51469868  0.38468809  0.04803368     0.76900
O281        O  0.53126912  0.43975986  0.48052869    -0.56600
O282        O  0.49576484  0.38077916  0.02172070    -0.46700
O283        O  0.48552823  0.43545360  0.47907516    -0.53000
C284        C  0.48750997  0.39037733  0.40204686     0.87000
O285        O  0.52583570  0.34995312  0.46764508    -0.54900
O286        O  0.53875682  0.39339908  0.03568861    -0.58200
In287      In  0.51866205  0.58121803  0.27430009     1.36900
C288        C  0.50817922  0.52550700  0.26150799     0.79500
O289        O  0.51684022  0.57693251  0.33922370    -0.59000
O290        O  0.48103328  0.59669230  0.31010077    -0.49900
C291        C  0.56417756  0.61400938  0.29167832     0.72100
O292        O  0.56627124  0.58704955  0.28783577    -0.44700
C293        C  0.50443591  0.59691125  0.20270565     0.76900
O294        O  0.53352443  0.53514470  0.26588100    -0.56600
O295        O  0.48937911  0.60368875  0.23233200    -0.46700
O296        O  0.48854628  0.54403410  0.26559557    -0.53000
C297        C  0.49247094  0.58901398  0.34217452     0.87000
O298        O  0.53932144  0.62403074  0.28453815    -0.54900
O299        O  0.52800225  0.58431245  0.21017280    -0.58200
In300      In  0.46020782  0.39974651  0.21975427     1.36900
C301        C  0.46927458  0.45523169  0.23328072     0.79500
O302        O  0.45353144  0.39581052  0.28425895    -0.59000
O303        O  0.49436782  0.38292781  0.26004398    -0.49900
C304        C  0.41924298  0.36091533  0.21006457     0.72100
O305        O  0.41341364  0.38757065  0.21035292    -0.44700
C306        C  0.47585587  0.39409955  0.14561725     0.76900
O307        O  0.44401566  0.44472859  0.23206926    -0.56600
O308        O  0.49131857  0.38427368  0.17338364    -0.46700
O309        O  0.48929157  0.43768439  0.22530389    -0.53000
C310        C  0.47909597  0.38723575  0.29053487     0.87000
O311        O  0.44522775  0.35461916  0.21755103    -0.54900
O312        O  0.45355320  0.40772950  0.15618573    -0.58200
In313      In  0.32118532  0.20970180  0.40754564     1.36900
C314        C  0.26492008  0.21951197  0.40017061     0.79500
O315        O  0.32007241  0.21215522  0.47334948    -0.59000
O316        O  0.34283966  0.24480334  0.44268254    -0.49900
C317        C  0.35260499  0.16362164  0.42209788     0.72100
O318        O  0.32534136  0.16236910  0.41942365    -0.44700
C319        C  0.33289971  0.22067325  0.33237008     0.76900
O320        O  0.27496528  0.19447562  0.40473629    -0.56600
O321        O  0.33547197  0.23938996  0.35916934    -0.46700
O322        O  0.28337475  0.23919798  0.40204318    -0.53000
C323        C  0.33543116  0.23440224  0.47554361     0.87000
O324        O  0.36339571  0.18802450  0.41548597    -0.54900
O325        O  0.32670980  0.19593490  0.34444692    -0.58200
In326      In  0.13854950  0.26414602  0.35673239     1.36900
C327        C  0.19432686  0.25679797  0.37080233     0.79500
O328        O  0.13524177  0.27428319  0.42062917    -0.59000
O329        O  0.11984205  0.23367955  0.40010670    -0.49900
C330        C  0.10150856  0.30591903  0.34194425     0.72100
O331        O  0.12853489  0.30999339  0.33981682    -0.44700
C332        C  0.13175704  0.23980116  0.28711955     0.76900
O333        O  0.18337495  0.28162478  0.36734912    -0.56600
O334        O  0.12488772  0.22701705  0.31854191    -0.46700
O335        O  0.17717307  0.23642338  0.36442325    -0.53000
C336        C  0.12541920  0.24982424  0.42915546     0.87000
O337        O  0.09405712  0.28137433  0.35369281    -0.54900
O338        O  0.14277368  0.26429728  0.29172318    -0.58200
In339      In  0.13623032  0.22212276  0.10235491     1.36900
C340        C  0.19268555  0.22931879  0.11280937     0.79500
O341        O  0.13912031  0.22361712  0.03720157    -0.59000
O342        O  0.12071155  0.25982272  0.06666251    -0.49900
C343        C  0.09904876  0.18051714  0.08736474     0.72100
O344        O  0.12609252  0.17616875  0.08567553    -0.44700
C345        C  0.12432221  0.23513052  0.17602752     0.76900
O346        O  0.18176126  0.20464163  0.10831114    -0.56600
O347        O  0.11804896  0.25163056  0.14775174    -0.46700
O348        O  0.17502499  0.24980091  0.10953966    -0.53000
C349        C  0.12746129  0.24804183  0.03432394     0.87000
O350        O  0.09163146  0.20527034  0.09870068    -0.54900
O351        O  0.13468840  0.21100829  0.16629572    -0.58200
In352      In  0.31955037  0.27398667  0.15820225     1.36900
C353        C  0.26410368  0.26555620  0.14177878     0.79500
O354        O  0.32701441  0.27761938  0.09287192    -0.59000
O355        O  0.33912071  0.23874448  0.12137752    -0.49900
C356        C  0.35400257  0.31856186  0.17101119     0.72100
O357        O  0.32767839  0.32173780  0.16174560    -0.44700
C358        C  0.32146845  0.25823117  0.23337198     0.76900
O359        O  0.27496031  0.29042734  0.14355100    -0.56600
O360        O  0.33406101  0.24389816  0.20656982    -0.46700
O361        O  0.28124902  0.24543154  0.15037031    -0.53000
C362        C  0.33591860  0.25209762  0.08923057     0.87000
O363        O  0.36285156  0.29287315  0.17079175    -0.54900
O364        O  0.30711071  0.27952741  0.22130991    -0.58200
In365      In  0.96608885  0.58541225  0.22603476     1.36900
C366        C  0.98622531  0.53252888  0.23603729     0.79500
O367        O  0.96616288  0.58094293  0.16088486    -0.59000
O368        O  0.99921447  0.60640475  0.18749826    -0.49900
C369        C  0.91697753  0.61253038  0.21048626     0.72100
O370        O  0.91793236  0.58542350  0.21341033    -0.44700
C371        C  0.97771053  0.60079402  0.29915047     0.76900
O372        O  0.95935769  0.53801919  0.23612874    -0.56600
O373        O  0.99203987  0.61013621  0.27019945    -0.46700
O374        O  0.00216600  0.55362371  0.22863271    -0.53000
C375        C  0.98811022  0.59660592  0.15616305     0.87000
O376        O  0.94051446  0.62509964  0.21786233    -0.54900
O377        O  0.95612011  0.58564945  0.29028121    -0.58200
In378      In  0.01472664  0.40257635  0.28626558     1.36900
C379        C  0.99548378  0.45481407  0.27092130     0.79500
O380        O  0.02278402  0.39602688  0.22268186    -0.59000
O381        O  0.98387511  0.37905481  0.24752756    -0.49900
C382        C  0.06050069  0.37047913  0.29991440     0.72100
O383        O  0.06301763  0.39701695  0.29220769    -0.44700
C384        C  0.00136457  0.39969651  0.36104268     0.76900
O385        O  0.02227928  0.44875919  0.26953405    -0.56600
O386        O  0.98708986  0.38600080  0.33519864    -0.46700
O387        O  0.97932482  0.43458069  0.28162527    -0.53000
C388        C  0.99883451  0.38375756  0.21695961     0.87000
O389        O  0.03509744  0.36070599  0.29764500    -0.54900
O390        O  0.02129127  0.41554748  0.34811401    -0.58200
In391      In  0.01181230  0.58471770  0.47698542     1.36900
C392        C  0.00335577  0.52932691  0.49058883     0.79500
O393        O  0.02125399  0.58959691  0.03930978    -0.59000
O394        O  0.97926134  0.59593814  0.01518082    -0.49900
C395        C  0.05165272  0.62249761  0.45772711     0.72100
O396        O  0.05718863  0.59576597  0.45815136    -0.44700
C397        C  0.98480690  0.59181523  0.40941660     0.76900
O398        O  0.02812702  0.53917371  0.48227176    -0.56600
O399        O  0.97338811  0.59953488  0.44170360    -0.46700
O400        O  0.98315979  0.54755494  0.48991985    -0.53000
C401        C  0.99525054  0.59658073  0.04527704     0.87000
O402        O  0.02639803  0.62938656  0.46838352    -0.54900
O403        O  0.00906891  0.57947707  0.41227144    -0.58200
In404      In  0.96714859  0.39431646  0.03734866     1.36900
C405        C  0.97143903  0.45070948  0.02809520     0.79500
O406        O  0.96640538  0.39636185  0.10250755    -0.59000
O407        O  0.00458064  0.38024397  0.07470581    -0.49900
C408        C  0.92752577  0.35475363  0.04942503     0.72100
O409        O  0.92130289  0.38126046  0.05130327    -0.44700
C410        C  0.96687117  0.38983319  0.46133910     0.76900
O411        O  0.94708066  0.43855089  0.03084054    -0.56600
O412        O  0.98681536  0.38605828  0.48643394    -0.46700
O413        O  0.99282249  0.43431706  0.03284982    -0.53000
C414        C  0.99143580  0.38591500  0.10644509     0.87000
O415        O  0.95310257  0.34905602  0.03903703    -0.54900
O416        O  0.94294831  0.39833209  0.47505066    -0.58200
C417        C  0.99844469  0.49895917  0.50102124    -0.14500
C418        C  0.97500125  0.48140071  0.01839233    -0.29700
H419        H  0.02035500  0.47862094  0.01207372     0.14500
H420        H  0.95387466  0.50366762  0.51359223     0.15100
C421        C  0.98787179  0.37803363  0.17720537    -0.14500
C422        C  0.00454156  0.38187462  0.14533054    -0.29700
H423        H  0.96486217  0.37415456  0.17384484     0.14500
H424        H  0.02775817  0.38447527  0.14821393     0.15100
C425        C  0.97175738  0.38700426  0.41880130    -0.14500
C426        C  0.99615939  0.39747465  0.40351415    -0.29700
H427        H  0.95417382  0.38020924  0.39975845     0.14500
H428        H  0.01243221  0.40655536  0.42299033     0.15100
C429        C  0.00043264  0.60183242  0.11696303    -0.14500
C430        C  0.98348946  0.60177362  0.08487203    -0.29700
H431        H  0.02376083  0.60319245  0.11417479     0.14500
H432        H  0.96013161  0.60158967  0.08819197     0.15100
C433        C  0.98728849  0.60476631  0.34008400    -0.14500
C434        C  0.97116375  0.59644941  0.37087899    -0.29700
H435        H  0.00948004  0.61153294  0.34483724     0.14500
H436        H  0.94853450  0.59098379  0.36713174     0.15100
C437        C  0.99879897  0.50414188  0.24498446    -0.14500
C438        C  0.98306674  0.48300084  0.26056786    -0.29700
H439        H  0.02183830  0.50106214  0.24034648     0.14500
H440        H  0.96008245  0.48625193  0.26552391     0.15100
C441        C  0.23379957  0.26049345  0.13008838    -0.14500
C442        C  0.22344197  0.23398705  0.12266855    -0.29700
H443        H  0.21976663  0.27909480  0.12711272     0.14500
H444        H  0.23749094  0.21536232  0.12522414     0.15100
C445        C  0.07943142  0.32710172  0.33054665    -0.14500
C446        C  0.08492813  0.35204116  0.31222368    -0.29700
H447        H  0.05715842  0.32096991  0.33602739     0.14500
H448        H  0.10697585  0.35894812  0.30705760     0.15100
C449        C  0.13012971  0.25628740  0.50079921    -0.14500
C450        C  0.12341749  0.23956191  0.46985887    -0.29700
H451        H  0.12383924  0.28515163  0.99437647     0.14500
H452        H  0.11987623  0.21674420  0.47415564     0.15100
C453        C  0.12758074  0.22735163  0.24774437    -0.14500
C454        C  0.12195706  0.24466601  0.21713418    -0.29700
H455        H  0.13026792  0.20438737  0.24361651     0.14500
H456        H  0.11792780  0.26735833  0.22225592     0.15100
C457        C  0.33497225  0.22728457  0.28997210    -0.14500
C458        C  0.32333488  0.25158674  0.27583110    -0.29700
H459        H  0.34279265  0.21082156  0.26987253     0.14500
H460        H  0.31364955  0.26689646  0.29620341     0.15100
C461        C  0.33951878  0.23783759  0.05050030    -0.14500
C462        C  0.33849469  0.25219597  0.01613471    -0.29700
H463        H  0.34030565  0.21453499  0.05016245     0.14500
H464        H  0.34514030  0.27072260  0.51529134     0.15100
C465        C  0.23425294  0.22524633  0.39153702    -0.14500
C466        C  0.22465644  0.25172319  0.38212361    -0.29700
H467        H  0.21957513  0.20712180  0.39103025     0.14500
H468        H  0.23921681  0.26992801  0.38292030     0.15100
C469        C  0.39830327  0.33812539  0.20041926    -0.14500
C470        C  0.37285264  0.34286411  0.18232931    -0.29700
H471        H  0.40513624  0.31620493  0.20620105     0.14500
H472        H  0.36568283  0.36462440  0.17631462     0.15100
C473        C  0.50206962  0.49515017  0.25139971    -0.14500
C474        C  0.47506181  0.48555103  0.24398988    -0.29700
H475        H  0.52031069  0.48050392  0.24917711     0.14500
H476        H  0.45674777  0.50006982  0.24662840     0.15100
C477        C  0.47444758  0.38739785  0.36276508    -0.14500
C478        C  0.49104746  0.38457722  0.33050186    -0.29700
H479        H  0.45106636  0.38829809  0.36023434     0.14500
H480        H  0.51432541  0.38234882  0.33347620     0.15100
C481        C  0.50848440  0.38215577  0.09032006    -0.14500
C482        C  0.48246614  0.39024266  0.10364161    -0.29700
H483        H  0.52609987  0.37811229  0.11077030     0.14500
H484        H  0.46577111  0.39652214  0.08275825     0.15100
C485        C  0.51025856  0.59503853  0.13104389    -0.14500
C486        C  0.49378946  0.60094568  0.16249830    -0.29700
H487        H  0.53333894  0.59135040  0.13409297     0.14500
H488        H  0.47098995  0.60593013  0.15871562     0.15100
C489        C  0.49441367  0.59875569  0.41233082    -0.14500
C490        C  0.47841553  0.59323478  0.38034587    -0.29700
H491        H  0.51739035  0.60298315  0.40928888     0.14500
H492        H  0.45520193  0.59028611  0.38253307     0.15100
C493        C  0.50311504  0.48266387  0.49362117    -0.14500
C494        C  0.48257970  0.49629276  0.00366280    -0.29700
H495        H  0.52230606  0.49595868  0.49505970     0.14500
H496        H  0.46395167  0.48220793  0.00415682     0.15100
C497        C  0.98012656  0.97540982  0.24142781    -0.14500
C498        C  0.99518692  0.99550735  0.26077287    -0.29700
H499        H  0.95766148  0.97945008  0.23386723     0.14500
H500        H  0.01760086  0.99131392  0.26849647     0.15100
C501        C  0.99278659  0.87364010  0.08096489    -0.14500
C502        C  0.97579183  0.87569859  0.11280988    -0.29700
H503        H  0.01608585  0.87203973  0.08447999     0.14500
H504        H  0.95241836  0.87600398  0.10999087     0.15100
C505        C  0.00763890  0.87931086  0.36306268    -0.14500
C506        C  0.99101912  0.87157728  0.33255539    -0.29700
H507        H  0.03038863  0.88414447  0.35911757     0.14500
H508        H  0.96859489  0.86569172  0.33740669     0.15100
C509        C  0.07693970  0.15938433  0.07598924    -0.14500
C510        C  0.08267694  0.13372860  0.05949200    -0.29700
H511        H  0.05458896  0.16595903  0.08014742     0.14500
H512        H  0.10482969  0.12648534  0.05567327     0.15100
C513        C  0.97697159  0.09285401  0.14093504    -0.14500
C514        C  0.99358858  0.09656921  0.17300897    -0.29700
H515        H  0.95360846  0.09195792  0.14361819     0.14500
H516        H  0.01681016  0.09900559  0.16978780     0.15100
C517        C  0.98735809  0.08714712  0.39945685    -0.14500
C518        C  0.01325214  0.09556093  0.41259154    -0.29700
H519        H  0.97112526  0.08000708  0.42038956     0.14500
H520        H  0.03059650  0.10014279  0.39200451     0.15100
C521        C  0.98647273  0.98312222  0.48992105    -0.14500
C522        C  0.00452880  0.99432000  0.00768569    -0.29700
H523        H  0.96899443  0.99864061  0.48748482     0.14500
H524        H  0.02350170  0.98056682  0.00619435     0.15100
C525        C  0.09948359  0.63930393  0.43361815    -0.14500
C526        C  0.07227326  0.64476456  0.44534077    -0.29700
H527        H  0.10777026  0.61747672  0.43359537     0.14500
H528        H  0.06446561  0.66678279  0.44590094     0.15100
C529        C  0.24947030  0.74738900  0.37035646    -0.14500
C530        C  0.23962030  0.72126087  0.38093421    -0.29700
H531        H  0.23528533  0.76598211  0.37171763     0.14500
H532        H  0.25405809  0.70283950  0.37997122     0.15100
C533        C  0.40941910  0.64433896  0.04610713    -0.14500
C534        C  0.38341872  0.63971693  0.06253143    -0.29700
H535        H  0.41655529  0.66626522  0.04154207     0.14500
H536        H  0.37556616  0.61801814  0.06669249     0.15100
C537        C  0.35201135  0.73567328  0.20364026    -0.14500
C538        C  0.34704022  0.71924934  0.23528209    -0.29700
H539        H  0.35586752  0.75850911  0.20736234     0.14500
H540        H  0.34452466  0.69618561  0.23230615     0.15100
C541        C  0.34354215  0.74431928  0.48669179    -0.14500
C542        C  0.34966594  0.72807341  0.45514547    -0.29700
H543        H  0.34307032  0.76993331  0.98059390     0.14500
H544        H  0.35226931  0.70500316  0.45828781     0.15100
C545        C  0.08656492  0.82447949  0.18041633    -0.14500
C546        C  0.08814074  0.85228985  0.19082889    -0.29700
H547        H  0.06569184  0.81388339  0.18072762     0.14500
H548        H  0.10861497  0.86355934  0.19010483     0.15100
C549        C  0.14982552  0.74885052  0.27560697    -0.14500
C550        C  0.13863335  0.72463316  0.29041921    -0.29700
H551        H  0.15875644  0.76472264  0.29569397     0.14500
H552        H  0.13147367  0.70777937  0.27056573     0.15100
C553        C  0.13856743  0.75485435  0.03974903    -0.14500
C554        C  0.14500857  0.72918595  0.02400358    -0.29700
H555        H  0.13391645  0.77291640  0.02056956     0.14500
H556        H  0.15525416  0.71707201  0.54402987     0.15100
C557        C  0.24681094  0.72642887  0.11702984    -0.14500
C558        C  0.23842353  0.75284523  0.12890868    -0.29700
H559        H  0.23157730  0.70877024  0.11731482     0.14500
H560        H  0.25369412  0.77047428  0.12859998     0.15100
C561        C  0.88111064  0.33532362  0.07516275    -0.14500
C562        C  0.90765937  0.33142193  0.05998470    -0.29700
H563        H  0.87189561  0.35669953  0.07785390     0.14500
H564        H  0.91611147  0.30975299  0.05677354     0.15100
C565        C  0.74814889  0.24636000  0.12517728    -0.14500
C566        C  0.73883136  0.21922292  0.12988212    -0.29700
H567        H  0.73344421  0.26429018  0.12970348     0.14500
H568        H  0.75351156  0.20127196  0.12535284     0.15100
C569        C  0.89764091  0.15262356  0.32779415    -0.14500
C570        C  0.89326997  0.12659497  0.31151884    -0.29700
H571        H  0.91963812  0.16032288  0.33118404     0.14500
H572        H  0.87154524  0.11817860  0.30845549     0.15100
C573        C  0.84794132  0.22937467  0.47381371    -0.14500
C574        C  0.83693899  0.25408584  0.48758942    -0.29700
H575        H  0.85407763  0.21239223  0.49406217     0.14500
H576        H  0.84832686  0.20214159  0.99443735     0.15100
C577        C  0.85401151  0.23687246  0.21733265    -0.14500
C578        C  0.84931078  0.25302288  0.24960390    -0.29700
H579        H  0.85747669  0.21391103  0.22045551     0.14500
H580        H  0.84719579  0.27617203  0.24735358     0.15100
C581        C  0.57175322  0.33192908  0.44743853    -0.14500
C582        C  0.59928619  0.33585717  0.43601899    -0.29700
H583        H  0.56301392  0.31033013  0.44778693     0.14500
H584        H  0.60856253  0.35721039  0.43625414     0.15100
C585        C  0.64696475  0.22630674  0.27265184    -0.14500
C586        C  0.63589633  0.25087101  0.28701904    -0.29700
H587        H  0.65589386  0.21066057  0.29306998     0.14500
H588        H  0.62894374  0.26775767  0.26711320     0.15100
C589        C  0.63826251  0.21930620  0.01214650    -0.14500
C590        C  0.63510009  0.23487246  0.04537575    -0.29700
H591        H  0.63691876  0.19966319  0.50990906     0.14500
H592        H  0.63305825  0.25806620  0.04350692     0.15100
C593        C  0.73785285  0.25122155  0.38726144    -0.14500
C594        C  0.74800624  0.22527244  0.37570839    -0.29700
H595        H  0.75253360  0.26924742  0.38984732     0.14500
H596        H  0.73340236  0.20718432  0.37316101     0.15100
C597        C  0.57693572  0.13783568  0.19941245    -0.14500
C598        C  0.60232283  0.13333174  0.18108617    -0.29700
H599        H  0.56941075  0.15967800  0.20424667     0.14500
H600        H  0.61013495  0.11164425  0.17594656     0.15100
C601        C  0.39775023  0.81800982  0.31936185    -0.14500
C602        C  0.39295543  0.84287595  0.30044248    -0.29700
H603        H  0.41985141  0.81121541  0.32506743     0.14500
H604        H  0.37106167  0.85038653  0.29515824     0.15100
C605        C  0.47933983  0.97854282  0.25155210    -0.14500
C606        C  0.50632915  0.98881266  0.24669740    -0.29700
H607        H  0.46082740  0.99264657  0.24762601     0.14500
H608        H  0.52495785  0.97493694  0.25107533     0.15100
C609        C  0.39817094  0.14272041  0.44415074    -0.14500
C610        C  0.37064707  0.13873923  0.43303127    -0.29700
H611        H  0.40696630  0.16429762  0.44503031     0.14500
H612        H  0.36123050  0.11744007  0.43306299     0.15100
C613        C  0.49672036  0.08069198  0.10522866    -0.14500
C614        C  0.47140707  0.08995218  0.09092169    -0.29700
H615        H  0.51360436  0.07382463  0.08495284     0.14500
H616        H  0.45355495  0.09483865  0.11065114     0.15100
C617        C  0.48313187  0.08991484  0.33161667    -0.14500
C618        C  0.49838140  0.08779774  0.36526655    -0.29700
H619        H  0.45972244  0.09155046  0.33287924     0.14500
H620        H  0.52183933  0.08746308  0.36460426     0.15100
C621        C  0.47374691  0.88061435  0.12837989    -0.14500
C622        C  0.49003215  0.87422563  0.15983552    -0.29700
H623        H  0.45053137  0.88351579  0.13107056     0.14500
H624        H  0.51301156  0.87006430  0.15625017     0.15100
C625        C  0.47884861  0.87833281  0.41146303    -0.14500
C626        C  0.49720416  0.88157416  0.38130780    -0.29700
H627        H  0.45590130  0.87550600  0.40587962     0.14500
H628        H  0.52036332  0.88290467  0.38611107     0.15100
C629        C  0.46444436  0.99299233  0.49286463    -0.14500
C630        C  0.49805719  0.98149578  0.00164358    -0.29700
H631        H  0.44552566  0.97932033  0.49138595     0.14500
H632        H  0.51624964  0.99607537  0.00357786     0.15100
C633        C  0.58391940  0.65929035  0.31751688    -0.14500
C634        C  0.58864293  0.63237381  0.30445666    -0.29700
H635        H  0.56190139  0.66746079  0.31847675     0.14500
H636        H  0.61039428  0.62357014  0.30409277     0.15100
C637        C  0.89659609  0.82534535  0.42597544    -0.14500
C638        C  0.89442124  0.85257279  0.43887955    -0.29700
H639        H  0.91783466  0.81544474  0.42370115     0.14500
H640        H  0.87342044  0.86290434  0.44118347     0.15100
C641        C  0.74282547  0.75737595  0.38182475    -0.14500
C642        C  0.73223253  0.73084688  0.37458701    -0.29700
H643        H  0.72918751  0.77609827  0.37730747     0.14500
H644        H  0.74585613  0.71209339  0.37893137     0.15100
C645        C  0.58597444  0.84632178  0.05018882    -0.14500
C646        C  0.58249420  0.82038365  0.06680484    -0.29700
H647        H  0.60747829  0.85504858  0.04612294     0.14500
H648        H  0.56075896  0.81226913  0.07124721     0.15100
C649        C  0.62919618  0.73490864  0.48698094    -0.14500
C650        C  0.62531622  0.75034243  0.45418966    -0.29700
H651        H  0.64270174  0.70163310  0.98093384     0.14500
H652        H  0.62228252  0.77343817  0.45619981     0.15100
C653        C  0.63254666  0.73754129  0.20530483    -0.14500
C654        C  0.63767352  0.75497126  0.23591789    -0.29700
H655        H  0.62904329  0.71475802  0.21004432     0.14500
H656        H  0.63984583  0.77797656  0.23189081     0.15100
C657        C  0.89365442  0.65620124  0.18674112    -0.14500
C658        C  0.89088613  0.62870711  0.19806094    -0.29700
H659        H  0.91497373  0.66589130  0.18693809     0.14500
H660        H  0.87003083  0.61814891  0.19713198     0.15100
C661        C  0.83964030  0.75325564  0.26531388    -0.14500
C662        C  0.84167849  0.73732368  0.29826911    -0.29700
H663        H  0.83993951  0.77652149  0.26708750     0.14500
H664        H  0.84271934  0.71408561  0.29593866     0.15100
C665        C  0.83387778  0.74886817  0.02262718    -0.14500
C666        C  0.84341672  0.72432709  0.03854795    -0.29700
H667        H  0.82597181  0.76584677  0.04190976     0.14500
H668        H  0.84941936  0.70634351  0.01979304     0.15100
C669        C  0.74346489  0.72664261  0.13308688    -0.14500
C670        C  0.73368519  0.75233521  0.12017426    -0.29700
H671        H  0.72895835  0.70840745  0.13427931     0.14500
H672        H  0.74801221  0.77071868  0.11946759     0.15100
In673      In  0.82058259  0.70936865  0.65675743     1.36900
C674        C  0.76717316  0.72328445  0.63711158     0.79500
O675        O  0.80585186  0.70799298  0.71864979    -0.59000
O676        O  0.83888663  0.73816565  0.70405086    -0.49900
C677        C  0.85242657  0.66482960  0.67616082     0.72100
O678        O  0.82599459  0.66192701  0.66692532    -0.44700
C679        C  0.83888322  0.72023967  0.58482376     0.76900
O680        O  0.77471072  0.69751427  0.64356289    -0.56600
O681        O  0.84002149  0.73898193  0.61201479    -0.46700
O682        O  0.78661327  0.74178386  0.64273486    -0.53000
C683        C  0.82384056  0.72629841  0.73070768     0.87000
O684        O  0.86236290  0.68995791  0.67267217    -0.54900
O685        O  0.83119095  0.69554139  0.59560476    -0.58200
In686      In  0.64416068  0.77509749  0.59265782     1.36900
C687        C  0.70023887  0.76501517  0.60273080     0.79500
O688        O  0.64207114  0.78218353  0.65782050    -0.59000
O689        O  0.62405568  0.74391157  0.63396189    -0.49900
C690        C  0.61100350  0.82048501  0.57832914     0.72100
O691        O  0.63819823  0.82266165  0.58074129    -0.44700
C692        C  0.63395866  0.74934068  0.52481925     0.76900
O693        O  0.69023404  0.79031058  0.60182863    -0.56600
O694        O  0.62718162  0.73814553  0.55730833    -0.46700
O695        O  0.68210921  0.74577874  0.59512624    -0.53000
C696        C  0.63101200  0.75795066  0.66429490     0.87000
O697        O  0.60126648  0.79584394  0.58583796    -0.54900
O698        O  0.64610151  0.77350484  0.52717717    -0.58200
In699      In  0.83084878  0.76827611  0.90505415     1.36900
C700        C  0.77599715  0.75838869  0.88958137     0.79500
O701        O  0.83519187  0.78319069  0.84347625    -0.59000
O702        O  0.84579842  0.73923017  0.85675082    -0.49900
C703        C  0.87303101  0.80433249  0.91836720     0.72100
O704        O  0.84700916  0.81294348  0.91487707    -0.44700
C705        C  0.83202843  0.75405938  0.97986836     0.76900
O706        O  0.78547220  0.78356422  0.89593193    -0.56600
O707        O  0.84279551  0.73759273  0.95362291    -0.46700
O708        O  0.79434716  0.73838246  0.89351653    -0.53000
C709        C  0.84223662  0.75859932  0.83074907     0.87000
O710        O  0.87720304  0.77772452  0.91292200    -0.54900
O711        O  0.81961680  0.77641734  0.96717492    -0.58200
In712      In  0.64954433  0.71695233  0.84006231     1.36900
C713        C  0.70602878  0.72298856  0.85263919     0.79500
O714        O  0.65112518  0.71962860  0.77465204    -0.59000
O715        O  0.63633404  0.75630489  0.80659307    -0.49900
C716        C  0.61125227  0.67598109  0.82531013     0.72100
O717        O  0.63817098  0.67132427  0.82202077    -0.44700
C718        C  0.63669494  0.73106527  0.91279881     0.76900
O719        O  0.69488934  0.69854438  0.84678151    -0.56600
O720        O  0.63017285  0.74680313  0.88386341    -0.46700
O721        O  0.68871515  0.74370202  0.84914909    -0.53000
C722        C  0.64130160  0.74491835  0.77349797     0.87000
O723        O  0.60461392  0.70061730  0.83787591    -0.54900
O724        O  0.64778329  0.70701486  0.90421149    -0.64600
In725      In  0.50091331  0.89575834  0.52519171     1.36900
C726        C  0.49412605  0.95163695  0.51390684     0.79500
O727        O  0.52142104  0.88938550  0.95775370    -0.59000
O728        O  0.48280171  0.87233080  0.98238126    -0.49900
C729        C  0.54362264  0.85967860  0.54028763     0.72100
O730        O  0.54758065  0.88657187  0.54070461    -0.44700
C731        C  0.47519945  0.88722863  0.59331582     0.76900
O732        O  0.51877257  0.94037598  0.51891181    -0.56600
O733        O  0.46278773  0.88153547  0.56108161    -0.46700
O734        O  0.47321770  0.93459987  0.51693173    -0.53000
C735        C  0.49728745  0.87761393  0.95184306     0.87000
O736        O  0.51865354  0.85180780  0.53012633    -0.54900
O737        O  0.50004011  0.89803293  0.59034827    -0.58200
In738      In  0.45881751  0.07831191  0.97284861     1.36900
C739        C  0.46671341  0.02240120  0.98312153     0.79500
O740        O  0.46050815  0.07275079  0.90802460    -0.59000
O741        O  0.49672288  0.09244917  0.93627275    -0.49900
C742        C  0.42033296  0.11860247  0.95701491     0.72100
O743        O  0.41340390  0.09223793  0.95723392    -0.44700
C744        C  0.46393584  0.08945598  0.54727439     0.76900
O745        O  0.44187977  0.03294747  0.97618850    -0.56600
O746        O  0.48386977  0.09300832  0.52211762    -0.46700
O747        O  0.48704890  0.04032573  0.98316776    -0.53000
C748        C  0.48496332  0.08441430  0.90435343     0.87000
O749        O  0.44629969  0.12381562  0.96592461    -0.54900
O750        O  0.43960164  0.08285492  0.53320183    -0.58200
In751      In  0.45704436  0.89344859  0.77620283     1.36900
C752        C  0.46775141  0.94909906  0.76459506     0.79500
O753        O  0.46035800  0.89499775  0.84139779    -0.59000
O754        O  0.49593900  0.87746890  0.80931529    -0.49900
C755        C  0.41072221  0.86228191  0.79381545     0.72100
O756        O  0.40962105  0.88939288  0.79211109    -0.44700
C757        C  0.46872941  0.87790018  0.70324130     0.76900
O758        O  0.44241873  0.93960871  0.76931134    -0.56600
O759        O  0.48408308  0.86995941  0.73199664    -0.46700
O760        O  0.48734444  0.93050049  0.76826256    -0.53000
C761        C  0.48510692  0.88355485  0.84244220     0.87000
O762        O  0.43498148  0.85154419  0.78499260    -0.54900
O763        O  0.44614170  0.89165872  0.71225111    -0.58200
In764      In  0.51456378  0.07451449  0.72206129     1.36900
C765        C  0.50632602  0.01901259  0.73524392     0.79500
O766        O  0.52066555  0.07883168  0.78692188    -0.59000
O767        O  0.47980831  0.09081383  0.76206333    -0.49900
C768        C  0.55483895  0.11382596  0.71170956     0.72100
O769        O  0.56105713  0.08725848  0.71184575    -0.44700
C770        C  0.50011392  0.07933750  0.64724400     0.76900
O771        O  0.53134781  0.03007216  0.73586493    -0.56600
O772        O  0.48373251  0.08878813  0.67439503    -0.46700
O773        O  0.48626567  0.03595500  0.72533995    -0.53000
C774        C  0.49489250  0.08692494  0.79283786     0.87000
O775        O  0.52894801  0.11983096  0.72029150    -0.54900
O776        O  0.52261177  0.06652462  0.65879670    -0.58200
In777      In  0.65066133  0.25999983  0.90566360     1.36900
C778        C  0.70740594  0.25332793  0.89575245     0.79500
O779        O  0.65477930  0.25753286  0.97096109    -0.59000
O780        O  0.63498279  0.22229847  0.94124901    -0.49900
C781        C  0.61140775  0.29997775  0.92158426     0.72100
O782        O  0.63824302  0.30560011  0.92213452    -0.44700
C783        C  0.63930058  0.25182142  0.83003017     0.76900
O784        O  0.69607038  0.27769383  0.90240267    -0.56600
O785        O  0.63650247  0.23206606  0.85534084    -0.46700
O786        O  0.68990328  0.23270132  0.89605293    -0.53000
C787        C  0.64256940  0.23344280  0.97373400     0.87000
O788        O  0.60519544  0.27456268  0.91182770    -0.54900
O789        O  0.64621495  0.27598738  0.84385956    -0.58200
In790      In  0.83729142  0.21500922  0.85267080     1.36900
C791        C  0.78084080  0.21988579  0.86718833     0.79500
O792        O  0.84146372  0.20587136  0.91712485    -0.59000
O793        O  0.85617045  0.24619833  0.89529517    -0.49900
C794        C  0.87632397  0.17511899  0.83430713     0.72100
O795        O  0.84950728  0.16966638  0.83339655    -0.44700
C796        C  0.84175010  0.24156684  0.78424932     0.76900
O797        O  0.79302491  0.19563755  0.86309165    -0.56600
O798        O  0.84876027  0.25349296  0.81631761    -0.46700
O799        O  0.79721838  0.24101484  0.86191519    -0.53000
C800        C  0.85109526  0.23060254  0.92489199     0.87000
O801        O  0.88258899  0.19977517  0.84699405    -0.54900
O802        O  0.83192606  0.21647161  0.78746828    -0.58200
In803      In  0.82604897  0.27446658  0.60469617     1.36900
C804        C  0.77138428  0.26098335  0.61785536     0.79500
O805        O  0.81635673  0.28013150  0.54108362    -0.59000
O806        O  0.84518110  0.24626388  0.55723658    -0.49900
C807        C  0.85778306  0.32093524  0.59545971     0.72100
O808        O  0.83066986  0.32256879  0.60024572    -0.44700
C809        C  0.84237052  0.25406181  0.67360224     0.76900
O810        O  0.78013417  0.28667403  0.61958034    -0.56600
O811        O  0.84662724  0.24040197  0.64183372    -0.46700
O812        O  0.79018561  0.24288747  0.60730969    -0.53000
C813        C  0.83280622  0.26007391  0.52983817     0.87000
O814        O  0.86833392  0.29599500  0.59862382    -0.54900
O815        O  0.83192701  0.27895345  0.66958802    -0.58200
In816      In  0.64926296  0.20299107  0.65301319     1.36900
C817        C  0.70386497  0.21653663  0.64020078     0.79500
O818        O  0.64446818  0.19859264  0.58743278    -0.59000
O819        O  0.62768899  0.23629459  0.61499985    -0.49900
C820        C  0.61693999  0.15726036  0.66649261     0.72100
O821        O  0.64311934  0.15494803  0.65590218    -0.44700
C822        C  0.64698839  0.21691290  0.72853570     0.76900
O823        O  0.69540834  0.19068982  0.63997373    -0.56600
O824        O  0.63382086  0.23166114  0.70267519    -0.46700
O825        O  0.68467773  0.23483795  0.64865410    -0.53000
C826        C  0.63349772  0.22325807  0.58312486     0.87000
O827        O  0.60703606  0.18259209  0.66638738    -0.54900
O828        O  0.66189835  0.19632672  0.71529065    -0.58200
In829      In  0.14652711  0.77164581  0.65502301     1.36900
C830        C  0.20093298  0.75899714  0.63872238     0.79500
O831        O  0.15799655  0.77877713  0.71793171    -0.59000
O832        O  0.13331114  0.74134408  0.70382288    -0.49900
C833        C  0.10425949  0.80812866  0.66775647     0.72100
O834        O  0.13025800  0.81676728  0.66460260    -0.44700
C835        C  0.13485062  0.76224650  0.58016238     0.76900
O836        O  0.19269443  0.78469067  0.64527495    -0.56600
O837        O  0.13145824  0.74299125  0.60632445    -0.46700
O838        O  0.18164839  0.74007668  0.64293594    -0.53000
C839        C  0.14467751  0.75696626  0.73047346     0.87000
O840        O  0.10039141  0.78150068  0.66244544    -0.54900
O841        O  0.14178280  0.78681799  0.59299880    -0.58200
In842      In  0.32446982  0.70554094  0.59139689     1.36900
C843        C  0.26859571  0.71788744  0.60286640     0.79500
O844        O  0.32753555  0.69633045  0.65574667    -0.59000
O845        O  0.34632316  0.73478027  0.63355620    -0.49900
C846        C  0.35698559  0.65957379  0.57568913     0.72100
O847        O  0.32983695  0.65771563  0.57972281    -0.44700
C848        C  0.33631631  0.73089300  0.52427825     0.76900
O849        O  0.27728107  0.69252428  0.59622914    -0.56600
O850        O  0.34308097  0.74188261  0.55698395    -0.46700
O851        O  0.28803811  0.73658106  0.60078598    -0.53000
C852        C  0.33977282  0.71990731  0.66317956     0.87000
O853        O  0.36707731  0.68424053  0.58223802    -0.54900
O854        O  0.32245398  0.70766143  0.52609944    -0.58200
In855      In  0.14636200  0.70812919  0.90571403     1.36900
C856        C  0.20144297  0.71660392  0.88994717     0.79500
O857        O  0.13992001  0.69546148  0.84295082    -0.59000
O858        O  0.13235584  0.73939263  0.85856082    -0.49900
C859        C  0.10564154  0.66981340  0.91888842     0.72100
O860        O  0.13205334  0.66246442  0.91586463    -0.44700
C861        C  0.14579061  0.72328787  0.98108281     0.76900
O862        O  0.19104012  0.69156855  0.89377499    -0.56600
O863        O  0.13450607  0.73925137  0.95477822    -0.46700
O864        O  0.18396147  0.73697395  0.89646814    -0.53000
C865        C  0.13423511  0.72060326  0.83134633     0.87000
O866        O  0.10043374  0.69620862  0.91331110    -0.54900
O867        O  0.15793310  0.70080671  0.96825733    -0.58200
In868      In  0.32854914  0.75601738  0.84131251     1.36900
C869        C  0.27230315  0.75147538  0.85621828     0.79500
O870        O  0.32406178  0.75463368  0.77634849    -0.59000
O871        O  0.34078657  0.71749118  0.80530060    -0.49900
C872        C  0.36731213  0.79637518  0.82675331     0.72100
O873        O  0.34045111  0.80184385  0.82579974    -0.44700
C874        C  0.34325348  0.74013088  0.91232976     0.76900
O875        O  0.28421511  0.77571374  0.85217604    -0.56600
O876        O  0.34690139  0.72401378  0.88276140    -0.46700
O877        O  0.28874163  0.73036830  0.85019711    -0.53000
C878        C  0.33409528  0.72948949  0.77327817     0.87000
O879        O  0.37374483  0.77106433  0.83651543    -0.54900
O880        O  0.33401205  0.76509733  0.90503867    -0.58200
In881      In  0.02852896  0.07702062  0.52837471     1.36900
C882        C  0.01856619  0.02168000  0.51392360     0.79500
O883        O  0.02447683  0.07298176  0.59371022    -0.59000
O884        O  0.99032229  0.09378913  0.56266263    -0.49900
C885        C  0.07260464  0.10996495  0.54825128     0.72100
O886        O  0.07540845  0.08302176  0.54460825    -0.44700
C887        C  0.99600812  0.09565876  0.96013474     0.76900
O888        O  0.04349488  0.03078518  0.52273030    -0.56600
O889        O  0.98008446  0.09759746  0.99019645    -0.46700
O890        O  0.99904654  0.04054517  0.51450337    -0.53000
C891        C  0.00052653  0.08598217  0.59550363     0.87000
O892        O  0.04784091  0.11971955  0.53978405    -0.54900
O893        O  0.02191300  0.08887291  0.96718164    -0.58200
In894      In  0.96549004  0.89804435  0.97164442     1.36900
C895        C  0.97365038  0.95359680  0.98717876     0.79500
O896        O  0.95690575  0.89056961  0.53133561    -0.59000
O897        O  0.99858895  0.87745376  0.51147850    -0.49900
C898        C  0.91903800  0.86740302  0.95432613     0.72100
O899        O  0.91766465  0.89417298  0.96030225    -0.44700
C900        C  0.98933606  0.88998281  0.90214566     0.76900
O901        O  0.94879014  0.94287789  0.98341401    -0.56600
O902        O  0.00191720  0.88259612  0.93351164    -0.46700
O903        O  0.99409356  0.93628439  0.98108410    -0.53000
C904        C  0.98160254  0.88098059  0.54011735     0.87000
O905        O  0.94377422  0.85641794  0.95925139    -0.54900
O906        O  0.96539973  0.90259717  0.90658051    -0.58200
In907      In  0.00610970  0.89623835  0.72016175     1.36900
C908        C  0.98840307  0.94989057  0.73146784     0.79500
O909        O  0.00540351  0.90137440  0.65573632    -0.59000
O910        O  0.97342319  0.87432560  0.68185827    -0.49900
C911        C  0.05517650  0.86983071  0.70235037     0.72100
O912        O  0.05370252  0.89690597  0.70517151    -0.44700
C913        C  0.99372065  0.88029816  0.79226774     0.76900
O914        O  0.01473284  0.94270667  0.73444648    -0.56600
O915        O  0.97790571  0.87339313  0.76342167    -0.46700
O916        O  0.97178178  0.93008136  0.72074116    -0.53000
C917        C  0.98421488  0.88475109  0.65078891     0.87000
O918        O  0.03217252  0.85677699  0.71105539    -0.54900
O919        O  0.01692344  0.89283319  0.78350793    -0.58200
In920      In  0.96826639  0.08213068  0.77722976     1.36900
C921        C  0.98255009  0.02724273  0.76902786     0.79500
O922        O  0.96228627  0.08526450  0.71167178    -0.59000
O923        O  0.00134078  0.10091238  0.73660200    -0.49900
C924        C  0.92056802  0.11244046  0.79082673     0.72100
O925        O  0.91977160  0.08550174  0.78588166    -0.44700
C926        C  0.98928779  0.09267561  0.84828138     0.76900
O927        O  0.95688548  0.03592253  0.76351316    -0.56600
O928        O  0.00082727  0.10252701  0.81736713    -0.46700
O929        O  0.99970504  0.04606407  0.78131121    -0.53000
C930        C  0.98731612  0.09494298  0.70575315     0.87000
O931        O  0.94512855  0.12354963  0.78566279    -0.54900
O932        O  0.96719178  0.07731136  0.84267691    -0.58200
In933      In  0.46653250  0.58116482  0.52351151     1.36900
C934        C  0.47282068  0.52489720  0.51104451     0.79500
O935        O  0.46370254  0.58569506  0.95903775    -0.59000
O936        O  0.50423804  0.60049296  0.98139841    -0.49900
C937        C  0.42394336  0.61835562  0.53799586     0.72100
O938        O  0.41963314  0.59151972  0.53867932    -0.44700
C939        C  0.49308258  0.58758452  0.59178576     0.76900
O940        O  0.44819870  0.53656768  0.51472295    -0.56600
O941        O  0.50525767  0.59328837  0.55951248    -0.46700
O942        O  0.49373818  0.54172965  0.51550648    -0.53000
C943        C  0.48870587  0.59508825  0.95169010     0.87000
O944        O  0.44912928  0.62556617  0.52803112    -0.54900
O945        O  0.46755787  0.57837976  0.58897256    -0.58200
In946      In  0.52299269  0.39916105  0.97376050     1.36900
C947        C  0.51396280  0.45522353  0.98493914     0.79500
O948        O  0.51870217  0.40061817  0.90852813    -0.59000
O949        O  0.48372349  0.38297532  0.94111518    -0.49900
C950        C  0.56807133  0.36658084  0.95456232     0.72100
O951        O  0.57022975  0.39350406  0.95884674    -0.44700
C952        C  0.49598064  0.38393545  0.54473367     0.76900
O953        O  0.53861918  0.44511465  0.97657757    -0.56600
O954        O  0.48004222  0.37851935  0.51536640    -0.46700
O955        O  0.49411736  0.43691200  0.98587669    -0.53000
C956        C  0.49419648  0.38889458  0.90773509     0.87000
O957        O  0.54316171  0.35662231  0.96120321    -0.54900
O958        O  0.52080923  0.39342395  0.53660729    -0.58200
In959      In  0.52234257  0.57838162  0.77319332     1.36900
C960        C  0.51385066  0.52231971  0.76350611     0.79500
O961        O  0.52133342  0.57564011  0.83838989    -0.59000
O962        O  0.48499565  0.59433663  0.80941675    -0.49900
C963        C  0.56835610  0.61083560  0.78779921     0.72100
O964        O  0.57042470  0.58399122  0.78293912    -0.44700
C965        C  0.50495747  0.59290154  0.70206044     0.76900
O966        O  0.53887793  0.53272841  0.76732431    -0.56600
O967        O  0.49079910  0.59923358  0.73261454    -0.46700
O968        O  0.49366059  0.54030902  0.76658454    -0.53000
C969        C  0.49694916  0.58762803  0.84151391     0.87000
O970        O  0.54322764  0.62088461  0.78293337    -0.54900
O971        O  0.52932836  0.58147997  0.70814266    -0.58200
In972      In  0.46643220  0.39590464  0.72626876     1.36900
C973        C  0.47615068  0.45153568  0.73785487     0.79500
O974        O  0.45820804  0.39166715  0.79114887    -0.59000
O975        O  0.49693524  0.37378906  0.76759729    -0.49900
C976        C  0.42009048  0.36496823  0.70878168     0.72100
O977        O  0.41827634  0.39137542  0.71719675    -0.44700
C978        C  0.49030056  0.38859652  0.65618114     0.76900
O979        O  0.45095438  0.44164114  0.73350801    -0.56600
O980        O  0.50248639  0.37990474  0.68729886    -0.46700
O981        O  0.49607589  0.43322781  0.73461129    -0.53000
C982        C  0.48231788  0.37993815  0.79789590     0.87000
O983        O  0.44511552  0.35433682  0.71215065    -0.54900
O984        O  0.46662293  0.40157932  0.66127898    -0.58200
In985      In  0.32337954  0.21048188  0.91018756     1.36900
C986        C  0.26773099  0.22402849  0.90002204     0.79500
O987        O  0.32039379  0.21378515  0.97591335    -0.59000
O988        O  0.34272415  0.24684936  0.94549996    -0.49900
C989        C  0.35453528  0.16427460  0.92715885     0.72100
O990        O  0.32718611  0.16346981  0.92519695    -0.44700
C991        C  0.33770694  0.21722669  0.83493839     0.76900
O992        O  0.27596119  0.19861072  0.90715784    -0.56600
O993        O  0.34202576  0.23652704  0.86059532    -0.46700
O994        O  0.28774842  0.24219911  0.89943199    -0.53000
C995        C  0.33415664  0.23704626  0.97821837     0.87000
O996        O  0.36556247  0.18840545  0.91934034    -0.54900
O997        O  0.32789444  0.19402192  0.84825729    -0.58200
In998      In  0.14361866  0.27646138  0.85519863     1.36900
C999        C  0.19848205  0.26587289  0.87314438     0.79500
O1000       O  0.13532079  0.28330459  0.91890993    -0.59000
O1001       O  0.12363920  0.24299007  0.89282788    -0.49900
C1002       C  0.10381828  0.31576632  0.84138530     0.72100
O1003       O  0.12993735  0.32285241  0.84758351    -0.44700
C1004       C  0.14375087  0.26181523  0.78049110     0.76900
O1005       O  0.18875430  0.29135152  0.87062275    -0.56600
O1006       O  0.13315857  0.24553092  0.80661735    -0.46700
O1007       O  0.18038881  0.24651880  0.86527940    -0.53000
C1008       C  0.12602960  0.25805875  0.92381300     0.87000
O1009       O  0.09842223  0.28936449  0.84488468    -0.54900
O1010       O  0.15519741  0.28459829  0.79307327    -0.58200
In1011     In  0.14884300  0.21704652  0.60575206     1.36900
C1012       C  0.20537672  0.22492341  0.61406535     0.79500
O1013       O  0.14900155  0.21871907  0.54071063    -0.59000
O1014       O  0.13212337  0.25509362  0.57170067    -0.49900
C1015       C  0.11174871  0.17597583  0.58918097     0.72100
O1016       O  0.13883080  0.17160134  0.58770629    -0.44700
C1017       C  0.13781223  0.22483884  0.68093906     0.76900
O1018       O  0.19457253  0.20024547  0.60915200    -0.56600
O1019       O  0.13336314  0.24424331  0.65555322    -0.46700
O1020       O  0.18749217  0.24532258  0.61223785    -0.53000
C1021       C  0.13709469  0.24308706  0.53885978     0.87000
O1022       O  0.10415968  0.20060584  0.60105098    -0.54900
O1023       O  0.14597971  0.20093121  0.66738855    -0.58200
In1024     In  0.33375792  0.26472411  0.65703060     1.36900
C1025       C  0.27799549  0.25942903  0.64154173     0.79500
O1026       O  0.33945619  0.27033173  0.59228518    -0.59000
O1027       O  0.34854570  0.22910812  0.61721408    -0.49900
C1028       C  0.37535518  0.30237272  0.66806647     0.72100
O1029       O  0.34918972  0.31023515  0.66434559    -0.44700
C1030       C  0.33381863  0.25170287  0.73289624     0.76900
O1031       O  0.29010242  0.28381453  0.64302586    -0.56600
O1032       O  0.34456618  0.23476861  0.70734996    -0.46700
O1033       O  0.29419654  0.23840757  0.64973550    -0.53000
C1034       C  0.34559269  0.24418977  0.58634597     0.87000
O1035       O  0.38003584  0.27588038  0.66304504    -0.54900
O1036       O  0.32233315  0.27414135  0.71917328    -0.58200
In1037     In  0.96048474  0.58895326  0.72802628     1.36900
C1038       C  0.98235123  0.53752328  0.73771674     0.79500
O1039       O  0.95054494  0.57982861  0.66604376    -0.59000
O1040       O  0.98888544  0.60417149  0.67905372    -0.49900
C1041       C  0.91784342  0.62517978  0.71837614     0.72100
O1042       O  0.91331134  0.59824744  0.71868646    -0.44700
C1043       C  0.97097069  0.59927426  0.80219237     0.76900
O1044       O  0.95516241  0.54201745  0.73812987    -0.56600
O1045       O  0.98513924  0.61173761  0.77508551    -0.46700
O1046       O  0.99784077  0.55907073  0.72978321    -0.53000
C1047       C  0.97215653  0.59341929  0.65312840     0.87000
O1048       O  0.94345907  0.63292772  0.72582249    -0.54900
O1049       O  0.95043668  0.58331272  0.79090699    -0.58200
In1050     In  0.01094777  0.40706405  0.78544898     1.36900
C1051       C  0.99282431  0.46062647  0.77493756     0.79500
O1052       O  0.02091714  0.40431201  0.72110266    -0.59000
O1053       O  0.98319690  0.38343428  0.74266567    -0.49900
C1054       C  0.05923332  0.37942757  0.80323443     0.72100
O1055       O  0.05847116  0.40659384  0.80167418    -0.44700
C1056       C  0.98808475  0.39431863  0.85415206     0.76900
O1057       O  0.01939065  0.45409086  0.77281503    -0.56600
O1058       O  0.97679602  0.38597930  0.82219214    -0.46700
O1059       O  0.97652150  0.44041242  0.78484168    -0.53000
C1060       C  0.99802691  0.39083843  0.71319334     0.87000
O1061       O  0.03619556  0.36712110  0.79275285    -0.54900
O1062       O  0.01024699  0.40981990  0.85061720    -0.58200
In1063     In  0.01344870  0.57658033  0.97668242     1.36900
C1064       C  0.00571938  0.52227951  0.99784694     0.79500
O1065       O  0.02965683  0.58882857  0.53762177    -0.59000
O1066       O  0.98614840  0.60256983  0.52696739    -0.49900
C1067       C  0.06040133  0.60587279  0.95524390     0.72100
O1068       O  0.06173127  0.57954094  0.96414340    -0.44700
C1069       C  0.98792182  0.57821561  0.90722422     0.76900
O1070       O  0.03059023  0.53265788  0.99180423    -0.56600
O1071       O  0.98474729  0.59803766  0.93229386    -0.46700
O1072       O  0.98505669  0.53952282  0.99233116    -0.53000
C1073       C  0.00624069  0.59827337  0.55173583     0.87000
O1074       O  0.03557963  0.61682325  0.95863230    -0.54900
O1075       O  0.00347685  0.55744701  0.91805477    -0.58200
In1076     In  0.96040986  0.40313069  0.53600144     1.36900
C1077       C  0.96764604  0.45869584  0.52247596     0.79500
O1078       O  0.96391927  0.40878129  0.60053820    -0.59000
O1079       O  0.99983118  0.38980275  0.57039029    -0.49900
C1080       C  0.92188615  0.36436742  0.55649667     0.72100
O1081       O  0.91567404  0.39094775  0.55667620    -0.44700
C1082       C  0.98341083  0.38455774  0.96453333     0.76900
O1083       O  0.94305291  0.44844435  0.53092494    -0.56600
O1084       O  0.00015053  0.38057196  0.99346293    -0.46700
O1085       O  0.98806787  0.44073956  0.52266623    -0.53000
C1086       C  0.98870542  0.39747688  0.60286201     0.87000
O1087       O  0.94694226  0.35814547  0.54434245    -0.54900
O1088       O  0.95764433  0.39105694  0.97320804    -0.58200
C1089       C  0.00132067  0.49226045  0.01017420    -0.14500
C1090       C  0.97229468  0.48918014  0.51236992    -0.29700
H1091       H  0.01684352  0.48443754  0.49987377     0.14500
H1092       H  0.95583349  0.49482108  0.01617586     0.15100
C1093       C  0.98755556  0.38662127  0.67277511    -0.14500
C1094       C  0.00318856  0.39382885  0.64103049    -0.29700
H1095       H  0.96508091  0.38044752  0.66916562     0.14500
H1096       H  0.02602502  0.39875663  0.64355366     0.15100
C1097       C  0.99407461  0.38433177  0.92389981    -0.14500
C1098       C  0.97630368  0.38700112  0.89290895    -0.29700
H1099       H  0.01733788  0.38482797  0.91956680     0.14500
H1100       H  0.95306275  0.38510645  0.89636048     0.15100
C1101       C  0.97659942  0.59612440  0.61049270    -0.14500
C1102       C  0.00228438  0.60187980  0.59441614    -0.29700
H1103       H  0.95852137  0.59051095  0.59152533     0.14500
H1104       H  0.02111936  0.60507765  0.61301933     0.15100
C1105       C  0.97888521  0.60160752  0.84400539    -0.14500
C1106       C  0.97506375  0.57905288  0.86788756    -0.29700
H1107       H  0.99101011  0.62015514  0.85406034     0.14500
H1108       H  0.96595810  0.55927344  0.85634819     0.15100
C1109       C  0.99561561  0.50953338  0.74713724    -0.14500
C1110       C  0.98065168  0.48906499  0.76561113    -0.29700
H1111       H  0.01830708  0.50616566  0.74024257     0.14500
H1112       H  0.95802195  0.49273046  0.77265624     0.15100
C1113       C  0.24729965  0.25560084  0.63070212    -0.14500
C1114       C  0.23632198  0.22941520  0.62278336    -0.29700
H1115       H  0.23361572  0.27454084  0.62893464     0.14500
H1116       H  0.25018765  0.21058178  0.62409062     0.15100
C1117       C  0.08061364  0.33561145  0.82940372    -0.14500
C1118       C  0.08443947  0.36287559  0.81770471    -0.29700
H1119       H  0.05909930  0.32638717  0.82804218     0.14500
H1120       H  0.10554732  0.37288031  0.81935267     0.15100
C1121       C  0.12314143  0.26189465  0.99594918    -0.14500
C1122       C  0.12110375  0.24593459  0.96307377    -0.29700
H1123       H  0.13258298  0.27931180  0.49747912     0.14500
H1124       H  0.11917849  0.22276144  0.96522269     0.15100
C1125       C  0.14268079  0.25568481  0.73811944    -0.14500
C1126       C  0.13547690  0.23002757  0.72347435    -0.29700
H1127       H  0.14923422  0.27272880  0.71824860     0.14500
H1128       H  0.13096391  0.21216243  0.74300196     0.15100
C1129       C  0.34191471  0.22168123  0.79227981    -0.14500
C1130       C  0.33440400  0.24673366  0.77583147    -0.29700
H1131       H  0.34753122  0.20343316  0.77378771     0.14500
H1132       H  0.32673023  0.26410535  0.79461906     0.15100
C1133       C  0.34615500  0.23148263  0.54642369    -0.14500
C1134       C  0.34329520  0.24752564  0.51368977    -0.29700
H1135       H  0.34559955  0.20822856  0.54412633     0.14500
H1136       H  0.33910973  0.27548451  0.01596773     0.15100
C1137       C  0.23724448  0.23174384  0.89181660    -0.14500
C1138       C  0.22868863  0.25896652  0.88426725    -0.29700
H1139       H  0.22161218  0.21444557  0.89079972     0.14500
H1140       H  0.24411863  0.27641297  0.88598430     0.15100
C1141       C  0.39513038  0.34790448  0.69503295    -0.14500
C1142       C  0.39915387  0.32171911  0.67914182    -0.29700
H1143       H  0.37352198  0.35685865  0.69774457     0.14500
H1144       H  0.42091931  0.31305719  0.67675258     0.15100
C1145       C  0.50850908  0.49171444  0.75510437    -0.14500
C1146       C  0.48178516  0.48200487  0.74670756    -0.29700
H1147       H  0.52685482  0.47710831  0.75488415     0.14500
H1148       H  0.46348123  0.49666694  0.74688533     0.15100
C1149       C  0.47904997  0.38328837  0.87038376    -0.14500
C1150       C  0.49419824  0.37657299  0.83784915    -0.29700
H1151       H  0.45585635  0.38675956  0.86896122     0.14500
H1152       H  0.51716599  0.37192307  0.84028966     0.15100
C1153       C  0.48532211  0.38150848  0.58533671    -0.14500
C1154       C  0.50271531  0.38444937  0.61673902    -0.29700
H1155       H  0.46213929  0.37947606  0.58952143     0.14500
H1156       H  0.52603467  0.38491286  0.61328187     0.15100
C1157       C  0.50773758  0.59065254  0.62987065    -0.14500
C1158       C  0.49253362  0.59627384  0.66258654    -0.29700
H1159       H  0.53093770  0.58717819  0.63125695     0.14500
H1160       H  0.46956900  0.60103697  0.66051576     0.15100
C1161       C  0.50010794  0.59722533  0.91162688    -0.14500
C1162       C  0.48349094  0.59286458  0.87988498    -0.29700
H1163       H  0.52332484  0.59970325  0.90828063     0.14500
H1164       H  0.46012303  0.59176014  0.88240933     0.15100
C1165       C  0.50888761  0.48589287  0.99374590    -0.14500
C1166       C  0.47685521  0.49414307  0.50148879    -0.29700
H1167       H  0.52735411  0.50017481  0.99260001     0.14500
H1168       H  0.45771072  0.48078174  0.50011966     0.15100
C1169       C  0.97722989  0.97884020  0.74042739    -0.14500
C1170       C  0.99287362  0.99791398  0.76071989    -0.29700
H1171       H  0.95537807  0.98420581  0.73124692     0.14500
H1172       H  0.01466411  0.99236187  0.77000017     0.15100
C1173       C  0.99121161  0.87716910  0.58086069    -0.14500
C1174       C  0.97290416  0.87876503  0.61135572    -0.29700
H1175       H  0.01438084  0.87650759  0.58614791     0.14500
H1176       H  0.94968376  0.87801008  0.60692343     0.15100
C1177       C  0.00158083  0.88467403  0.86313980    -0.14500
C1178       C  0.98441300  0.87683185  0.83319633    -0.29700
H1179       H  0.02435633  0.88903090  0.85847473     0.14500
H1180       H  0.96197662  0.87129988  0.83866858     0.15100
C1181       C  0.08988186  0.15497850  0.57664837    -0.14500
C1182       C  0.09611676  0.12878348  0.56224556    -0.29700
H1183       H  0.06747163  0.16194798  0.57827342     0.14500
H1184       H  0.11826649  0.12103478  0.56149501     0.15100
C1185       C  0.98549804  0.09107543  0.63315575    -0.14500
C1186       C  0.00046524  0.09652504  0.66626328    -0.29700
H1187       H  0.96211071  0.08933944  0.63392525     0.14500
H1188       H  0.02370166  0.09962871  0.66464895     0.15100
C1189       C  0.00136652  0.09770260  0.88786379    -0.14500
C1190       C  0.98432683  0.09828472  0.91987870    -0.29700
H1191       H  0.02465090  0.09951938  0.89087629     0.14500
H1192       H  0.96098818  0.09787100  0.91636842     0.15100
C1193       C  0.97823638  0.98383444  0.99851422    -0.14500
C1194       C  0.01264820  0.99149167  0.50315514    -0.29700
H1195       H  0.95934099  0.99768940  0.00006455     0.14500
H1196       H  0.03011776  0.97598475  0.50579432     0.15100
C1197       C  0.08194579  0.65001299  0.92918353    -0.14500
C1198       C  0.08563719  0.62286817  0.94190549    -0.29700
H1199       H  0.06027131  0.65903164  0.92822423     0.14500
H1200       H  0.10709094  0.61339854  0.94316650     0.15100
C1201       C  0.24184802  0.74769327  0.86824751    -0.14500
C1202       C  0.23163839  0.72151164  0.87782597    -0.29700
H1203       H  0.22797390  0.76649309  0.87020823     0.14500
H1204       H  0.24568784  0.70284246  0.87581749     0.15100
C1205       C  0.40244917  0.64048727  0.54919481    -0.14500
C1206       C  0.37573683  0.63527037  0.56315904    -0.29700
H1207       H  0.40971203  0.66257416  0.54705915     0.14500
H1208       H  0.36760887  0.61348740  0.56467422     0.15100
C1209       C  0.34376681  0.73087002  0.70321117    -0.14500
C1210       C  0.33728404  0.71529136  0.73502365    -0.29700
H1211       H  0.34938304  0.75337932  0.70649434     0.14500
H1212       H  0.33295557  0.69246420  0.73266011     0.15100
C1213       C  0.34402200  0.74676606  0.98379682    -0.14500
C1214       C  0.34704903  0.72953278  0.95243829    -0.29700
H1215       H  0.34224870  0.76752612  0.48441686     0.14500
H1216       H  0.34938695  0.70649875  0.95640356     0.15100
C1217       C  0.07950612  0.82662769  0.67821115    -0.14500
C1218       C  0.08140704  0.85432496  0.68902517    -0.29700
H1219       H  0.05856555  0.81616636  0.67887604     0.14500
H1220       H  0.10194772  0.86546059  0.68792344     0.15100
C1221       C  0.14270688  0.75123164  0.77343577    -0.14500
C1222       C  0.13167940  0.72707625  0.78870512    -0.29700
H1223       H  0.15193628  0.76711892  0.79323286     0.14500
H1224       H  0.12420584  0.71021769  0.76907840     0.15100
C1225       C  0.13333674  0.75614363  0.53740405    -0.14500
C1226       C  0.14566987  0.73212878  0.52330969    -0.29700
H1227       H  0.12576771  0.77267571  0.51735045     0.14500
H1228       H  0.15174997  0.71188427  0.04341176     0.15100
C1229       C  0.23840652  0.72512105  0.61380686    -0.14500
C1230       C  0.23078698  0.75168159  0.62633366    -0.29700
H1231       H  0.22245864  0.70810326  0.61301867     0.14500
H1232       H  0.24676870  0.76866995  0.62702112     0.15100
C1233       C  0.87581966  0.34584778  0.58479114    -0.14500
C1234       C  0.90235287  0.34147634  0.56975495    -0.29700
H1235       H  0.86689605  0.36736513  0.58704608     0.14500
H1236       H  0.91054585  0.31968497  0.56687482     0.15100
C1237       C  0.74165024  0.25261728  0.62817501    -0.14500
C1238       C  0.73370840  0.22486160  0.63040144    -0.29700
H1239       H  0.72618262  0.26955345  0.63474823     0.14500
H1240       H  0.74922582  0.20792093  0.62407702     0.15100
C1241       C  0.89943705  0.15548702  0.82071535    -0.14500
C1242       C  0.89525882  0.12973503  0.80361359    -0.29700
H1243       H  0.92138525  0.16330772  0.82424476     0.14500
H1244       H  0.87365021  0.12100476  0.80067462     0.15100
C1245       C  0.85352734  0.24181122  0.96529598    -0.14500
C1246       C  0.84934731  0.22533407  0.99713203    -0.29700
H1247       H  0.85594577  0.26485934  0.96884182     0.14500
H1248       H  0.82861471  0.26989509  0.46693601     0.15100
C1249       C  0.84695088  0.24093772  0.71246976    -0.14500
C1250       C  0.84401830  0.25606403  0.74599016    -0.29700
H1251       H  0.85029763  0.21786776  0.71364485     0.14500
H1252       H  0.84204232  0.27928265  0.74523211     0.15100
C1253       C  0.59267047  0.34805309  0.94252373    -0.14500
C1254       C  0.58827105  0.32051754  0.93228315    -0.29700
H1255       H  0.61427395  0.35702202  0.94183354     0.14500
H1256       H  0.56639029  0.31215546  0.93229848     0.15100
C1257       C  0.64524511  0.22213313  0.77132286    -0.14500
C1258       C  0.63642033  0.24699184  0.78723374    -0.29700
H1259       H  0.65339373  0.20528263  0.79049672     0.14500
H1260       H  0.63046679  0.26487186  0.76838745     0.15100
C1261       C  0.63513691  0.22290772  0.51003614    -0.14500
C1262       C  0.63053579  0.23712513  0.54410240    -0.29700
H1263       H  0.63899369  0.19603106  0.01336036     0.14500
H1264       H  0.62733817  0.26023676  0.54355146     0.15100
C1265       C  0.73854000  0.24932980  0.88710055    -0.14500
C1266       C  0.74995887  0.22344047  0.87769368    -0.29700
H1267       H  0.75217971  0.26823791  0.88730729     0.14500
H1268       H  0.73643913  0.20445490  0.87789802     0.15100
C1269       C  0.57513308  0.13681067  0.70071645    -0.14500
C1270       C  0.59938876  0.13250875  0.67954423    -0.29700
H1271       H  0.56842345  0.15861703  0.70764078     0.14500
H1272       H  0.60650797  0.11089706  0.67233895     0.15100
C1273       C  0.39028888  0.81680728  0.81619455    -0.14500
C1274       C  0.38589760  0.84429938  0.80578537    -0.29700
H1275       H  0.41218741  0.80829658  0.81631324     0.14500
H1276       H  0.36435506  0.85359253  0.80662850     0.15100
C1277       C  0.47382258  0.97932215  0.75421282    -0.14500
C1278       C  0.50075636  0.98880035  0.74628773    -0.29700
H1279       H  0.45557080  0.99395713  0.75205851     0.14500
H1280       H  0.51912563  0.97437421  0.74907866     0.15100
C1281       C  0.40059279  0.14229630  0.94647948    -0.14500
C1282       C  0.37238991  0.13909794  0.93820192    -0.29700
H1283       H  0.41005949  0.16357289  0.94532434     0.14500
H1284       H  0.36234753  0.11814363  0.94019610     0.15100
C1285       C  0.49448995  0.08280534  0.60485810    -0.14500
C1286       C  0.46889329  0.09085742  0.59010924    -0.29700
H1287       H  0.51182825  0.07674361  0.58482985     0.14500
H1288       H  0.45072255  0.09494928  0.60962932     0.15100
C1289       C  0.48247478  0.08945332  0.83264741    -0.14500
C1290       C  0.49868659  0.08787833  0.86549603    -0.29700
H1291       H  0.45908029  0.09053156  0.83501383     0.14500
H1292       H  0.52211166  0.08824206  0.86371877     0.15100
C1293       C  0.46182321  0.88233082  0.63181258    -0.14500
C1294       C  0.47820160  0.87399649  0.66235050    -0.29700
H1295       H  0.43914968  0.88769001  0.63575456     0.14500
H1296       H  0.50049702  0.86747962  0.65744619     0.15100
C1297       C  0.48518039  0.87321621  0.91244729    -0.14500
C1298       C  0.50030926  0.87864752  0.87970691    -0.29700
H1299       H  0.46214941  0.86895109  0.91044013     0.14500
H1300       H  0.52354386  0.88171451  0.88082909     0.15100
C1301       C  0.47172525  0.99157661  0.99124315    -0.14500
C1302       C  0.49018536  0.98218056  0.50426368    -0.29700
H1303       H  0.45347502  0.97707473  0.98927443     0.14500
H1304       H  0.50909635  0.99587894  0.50544230     0.15100
C1305       C  0.58838586  0.65543525  0.81437679    -0.14500
C1306       C  0.59310784  0.62912319  0.79928226    -0.29700
H1307       H  0.56627805  0.66291257  0.81812756     0.14500
H1308       H  0.61495647  0.62083115  0.79630405     0.15100
C1309       C  0.89726995  0.82315553  0.92916421    -0.14500
C1310       C  0.89384335  0.85030415  0.94178396    -0.29700
H1311       H  0.91876361  0.81369672  0.92839638     0.14500
H1312       H  0.87251389  0.86008420  0.94256614     0.15100
C1313       C  0.74581014  0.75303815  0.87752012    -0.14500
C1314       C  0.73656175  0.72730725  0.86420774    -0.29700
H1315       H  0.73091812  0.77109380  0.87871963     0.14500
H1316       H  0.75127564  0.70911427  0.86300903     0.15100
C1317       C  0.56537023  0.83821550  0.55196602    -0.14500
C1318       C  0.59179952  0.84429693  0.56608731    -0.29700
H1319       H  0.55865324  0.81595005  0.54985028     0.14500
H1320       H  0.59942809  0.86627194  0.56745469     0.15100
C1321       C  0.63943053  0.72458593  0.98444656    -0.14500
C1322       C  0.63372508  0.74133966  0.95337770    -0.29700
H1323       H  0.63097617  0.71167638  0.48566814     0.14500
H1324       H  0.62907669  0.76401437  0.95772323     0.15100
C1325       C  0.62892587  0.74546980  0.70380067    -0.14500
C1326       C  0.63654409  0.76006269  0.73622742    -0.29700
H1327       H  0.62383952  0.72277890  0.70586230     0.14500
H1328       H  0.64044741  0.78300203  0.73506907     0.15100
C1329       C  0.87065323  0.64098705  0.69059863    -0.14500
C1330       C  0.89597442  0.64686459  0.70819496    -0.29700
H1331       H  0.86369501  0.61898398  0.68632184     0.14500
H1332       H  0.90233966  0.66908785  0.71234993     0.15100
C1333       C  0.82711306  0.73181652  0.77321260    -0.14500
C1334       C  0.84353719  0.75273952  0.78820140    -0.29700
H1335       H  0.81472419  0.71836625  0.79312515     0.14500
H1336       H  0.85422778  0.76788515  0.76886295     0.15100
C1337       C  0.83367417  0.75150055  0.52774601    -0.14500
C1338       C  0.84345418  0.72674321  0.54282372    -0.29700
H1339       H  0.82499595  0.76785612  0.54741355     0.14500
H1340       H  0.85026418  0.70950722  0.52326208     0.15100
C1341       C  0.73790714  0.73098568  0.62350503    -0.14500
C1342       C  0.73028140  0.75806316  0.61393540    -0.29700
H1343       H  0.72218053  0.71381686  0.62136593     0.14500
H1344       H  0.74573758  0.77542364  0.61661414     0.15100
loop_ 
_geom_bond_atom_site_label_1 
_geom_bond_atom_site_label_2 
_geom_bond_distance 
_geom_bond_site_symmetry_2 
_ccdc_geom_bond_type 
In1           O3   2.225       .  S
In1           O4   2.256       .  S
In1          O12   2.202       .  S
In1           O6   2.266       .  S
In1           O8   2.256       .  S
In1           O9   2.239       .  S
In1          O10   2.225       .  S
In1          O13   2.234       .  S
C2            O8   1.270       .  A
C2           O10   1.261       .  A
C2          C669   1.478       .  S
O3           C11   1.264       .  A
O4           C11   1.268       .  A
C5           O12   1.264       .  A
C5            O6   1.272       .  A
C5          C657   1.474       .  S
C7            O9   1.269       .  A
C7           O13   1.263       .  A
C7          C666   1.474       .  S
C11         C661   1.477       .  S
In14         O16   2.209       .  S
In14         O17   2.215       .  S
In14         O25   2.221       .  S
In14         O19   2.270       .  S
In14         O21   2.267       .  S
In14         O22   2.238       .  S
In14         O23   2.224       .  S
In14         O26   2.206       .  S
C15          O21   1.269       .  A
C15          O23   1.259       .  A
C15         C670   1.479       .  S
O16          C24   1.265       .  A
O17          C24   1.265       .  A
C18          O25   1.262       .  A
C18          O19   1.270       .  A
C18         C646   1.479       .  S
C20          O22   1.263       .  A
C20          O26   1.263       .  A
C20        C1321   1.463   1_554  S
C24         C653   1.460       .  S
In27         O29   2.230       .  S
In27         O30   2.232       .  S
In27         O38   2.213       .  S
In27         O32   2.266       .  S
In27         O34   2.255       .  S
In27         O35   2.251       .  S
In27         O36   2.231       .  S
In27         O39   2.220       .  S
C28          O34   1.272       .  A
C28          O36   1.263       .  A
C28         C641   1.483       .  S
O29          C37   1.267       .  A
O30          C37   1.270       .  A
C31          O38   1.263       .  A
C31          O32   1.272       .  A
C31         C637   1.477       .  S
C33          O35   1.270       .  A
C33          O39   1.263       .  A
C33        C1337   1.475       .  S
C37         C662   1.476       .  S
In40         O42   2.209       .  S
In40         O43   2.233       .  S
In40         O51   2.223       .  S
In40         O45   2.278       .  S
In40         O47   2.274       .  S
In40         O48   2.217       .  S
In40         O49   2.237       .  S
In40         O52   2.221       .  S
C41          O47   1.269       .  A
C41          O49   1.259       .  A
C41         C642   1.484       .  S
O42          C50   1.263       .  A
O43          C50   1.262       .  A
C44          O51   1.261       .  A
C44          O45   1.269       .  A
C44         C633   1.481       .  S
C46          O48   1.263       .  A
C46          O52   1.265       .  A
C46         C650   1.463       .  S
C50         C654   1.459       .  S
In53         O64   2.239       .  S
In53         O58   2.269       .  S
In53         O60   2.268       .  S
In53         O61   2.243       .  S
In53         O62   2.250       .  S
In53         O65   2.222       .  S
In53        O727   2.234   1_554  S
In53        O728   2.223   1_554  S
C54          O60   1.264       .  A
C54          O62   1.257       .  A
C54         C630   1.480       .  S
O55        In725   2.221       .  S
O55          C63   1.262       .  A
O56        In725   2.224       .  S
O56          C63   1.263       .  A
C57          O64   1.262       .  A
C57          O58   1.265       .  A
C57         C645   1.484       .  S
C59          O61   1.260       .  A
C59          O65   1.261       .  A
C59         C621   1.462       .  S
C63         C625   1.460       .  S
In66         O68   2.225       .  S
In66         O69   2.253       .  S
In66         O77   2.206       .  S
In66         O71   2.247       .  S
In66         O73   2.253       .  S
In66         O75   2.211       .  S
In66        O746   2.233       .  S
In66        O750   2.233       .  S
C67          O73   1.268       .  A
C67          O75   1.260       .  A
C67         C629   1.474   1_545  S
O68          C76   1.263       .  A
O69          C76   1.267       .  A
C70          O77   1.263       .  A
C70          O71   1.270       .  A
C70         C609   1.468       .  S
C72          O74   1.269       .  A
C72          O78   1.262       .  A
C72         C614   1.468       .  S
O74        In738   2.227   1_554  S
C76         C618   1.475       .  S
O78        In738   2.227   1_554  S
In79         O81   2.200       .  S
In79         O82   2.242       .  S
In79         O90   2.227       .  S
In79         O84   2.257       .  S
In79         O86   2.253       .  S
In79         O87   2.233       .  S
In79         O88   2.240       .  S
In79         O91   2.220       .  S
C80          O86   1.265       .  A
C80          O88   1.259       .  A
C80         C605   1.476       .  S
O81          C89   1.262       .  A
O82          C89   1.264       .  A
C83          O90   1.264       .  A
C83          O84   1.266       .  A
C83         C602   1.479       .  S
C85          O87   1.262       .  A
C85          O91   1.261       .  A
C85         C622   1.464       .  S
C89         C626   1.461       .  S
In92         O94   2.235       .  S
In92         O95   2.234       .  S
In92        O103   2.216       .  S
In92         O97   2.259       .  S
In92         O99   2.261       .  S
In92        O100   2.249       .  S
In92        O101   2.218       .  S
In92        O104   2.213       .  S
C93          O99   1.270       .  A
C93         O101   1.262       .  A
C93         C606   1.478   1_545  S
O94         C102   1.265       .  A
O95         C102   1.267       .  A
C96         O103   1.262       .  A
C96          O97   1.270       .  A
C96         C597   1.474       .  S
C98         O100   1.268       .  A
C98         O104   1.261       .  A
C98         C613   1.468       .  S
C102        C617   1.474       .  S
In105       O107   2.243       .  S
In105       O108   2.262       .  S
In105       O116   2.237       .  S
In105       O110   2.258       .  S
In105       O112   2.268       .  S
In105       O113   2.251       .  S
In105       O114   2.243       .  S
In105       O117   2.254       .  S
C106        O112   1.266       .  A
C106        O114   1.258       .  A
C106        C593   1.480       .  S
O107        C115   1.262       .  A
O108        C115   1.265       .  A
C109        O116   1.266       .  A
C109        O110   1.267       .  A
C109        C582   1.484       .  S
C111        O113   1.265       .  A
C111        O117   1.260       .  A
C111        C586   1.478       .  S
C115       C1261   1.479       .  S
In118       O120   2.236       .  S
In118       O121   2.235       .  S
In118       O129   2.216       .  S
In118       O123   2.271       .  S
In118       O125   2.273       .  S
In118       O126   2.258       .  S
In118       O127   2.230       .  S
In118       O130   2.223       .  S
C119        O125   1.269       .  A
C119        O127   1.259       .  A
C119        C594   1.482       .  S
O120        C128   1.262       .  A
O121        C128   1.267       .  A
C122        O129   1.263       .  A
C122        O123   1.271       .  A
C122        C569   1.479       .  S
C124        O126   1.265       .  A
C124        O130   1.262       .  A
C124        C578   1.473       .  S
C128        C573   1.472       .  S
In131       O133   2.227       .  S
In131       O134   2.252       .  S
In131       O142   2.222       .  S
In131       O136   2.264       .  S
In131       O138   2.260       .  S
In131       O139   2.242       .  S
In131       O140   2.234       .  S
In131       O143   2.247       .  S
C132        O138   1.263       .  A
C132        O140   1.257       .  A
C132        C565   1.473       .  S
O133        C141   1.262       .  A
O134        C141   1.263       .  A
C135        O142   1.263       .  A
C135        O136   1.265       .  A
C135        C561   1.479       .  S
C137        O139   1.261       .  A
C137        O143   1.261       .  A
C137        C577   1.472       .  S
C141       C1246   1.470   1_554  S
In144       O146   2.240       .  S
In144       O147   2.247       .  S
In144       O155   2.225       .  S
In144       O149   2.255       .  S
In144       O151   2.255       .  S
In144       O152   2.268       .  S
In144       O153   2.225       .  S
In144       O156   2.222       .  S
C145        O151   1.266       .  A
C145        O153   1.260       .  A
C145        C566   1.474       .  S
O146        C154   1.262       .  A
O147        C154   1.266       .  A
C148        O155   1.264       .  A
C148        O149   1.266       .  A
C148        C598   1.480       .  S
C150        O152   1.268       .  A
C150        O156   1.262       .  A
C150        C585   1.477       .  S
C154        C590   1.476       .  S
In157       O159   2.223       .  S
In157       O160   2.261       .  S
In157       O168   2.197       .  S
In157       O162   2.254       .  S
In157       O164   2.240       .  S
In157       O165   2.247       .  S
In157       O166   2.217       .  S
In157       O169   2.227       .  S
C158        O164   1.273       .  A
C158        O166   1.266       .  A
C158        C558   1.477       .  S
O159        C167   1.265       .  A
O160        C167   1.273       .  A
C161        O168   1.266       .  A
C161        O162   1.274       .  A
C161        C545   1.473       .  S
C163        O165   1.274       .  A
C163        O169   1.266       .  A
C163        C553   1.482       .  S
C167        C549   1.482       .  S
In170       O172   2.229       .  S
In170       O173   2.231       .  S
In170       O181   2.228       .  S
In170       O175   2.263       .  S
In170       O177   2.262       .  S
In170       O178   2.242       .  S
In170       O179   2.232       .  S
In170       O182   2.208       .  S
C171        O177   1.265       .  A
C171        O179   1.258       .  A
C171        C557   1.477       .  S
O172        C180   1.262       .  A
O173        C180   1.262       .  A
C174        O181   1.263       .  A
C174        O175   1.266       .  A
C174        C534   1.481       .  S
C176        O178   1.262       .  A
C176        O182   1.262       .  A
C176       C1213   1.460   1_554  S
C180        C537   1.467       .  S
In183       O185   2.232       .  S
In183       O186   2.258       .  S
In183       O194   2.227       .  S
In183       O188   2.251       .  S
In183       O190   2.249       .  S
In183       O191   2.276       .  S
In183       O192   2.238       .  S
In183       O195   2.212       .  S
C184        O190   1.269       .  A
C184        O192   1.262       .  A
C184        C530   1.479       .  S
O185        C193   1.261       .  A
O186        C193   1.270       .  A
C187        O194   1.267       .  A
C187        O188   1.269       .  A
C187        C525   1.481       .  S
C189        O191   1.271       .  A
C189        O195   1.261       .  A
C189       C1226   1.478       .  S
C193        C550   1.480       .  S
In196       O198   2.222       .  S
In196       O199   2.244       .  S
In196       O207   2.220       .  S
In196       O201   2.268       .  S
In196       O203   2.273       .  S
In196       O204   2.225       .  S
In196       O205   2.229       .  S
In196       O208   2.217       .  S
C197        O203   1.268       .  A
C197        O205   1.259       .  A
C197        C529   1.482       .  S
O198        C206   1.263       .  A
O199        C206   1.262       .  A
C200        O207   1.260       .  A
C200        O201   1.268       .  A
C200        C601   1.474       .  S
C202        O204   1.264       .  A
C202        O208   1.264       .  A
C202        C542   1.463       .  S
C206        C538   1.467       .  S
In209       O211   2.236       .  S
In209       O212   2.250   1_455  S
In209       O220   2.227       .  S
In209       O214   2.263       .  S
In209       O216   2.270       .  S
In209       O218   2.232   1_455  S
In209       O889   2.244   1_454  S
In209       O893   2.247   1_554  S
C210        O216   1.264       .  A
C210        O218   1.258   1_455  A
C210        C522   1.478   1_545  S
O211        C219   1.262   1_455  A
O212        C219   1.262       .  A
C213        O220   1.263       .  A
C213        O214   1.265       .  A
C213        C510   1.480       .  S
C215        O217   1.265       .  A
C215        O221   1.260       .  A
C215        C518   1.467       .  S
O217       In881   2.228       .  S
C219        C513   1.470       .  S
O221       In881   2.237       .  S
In222       O233   2.233       .  S
In222       O227   2.260       .  S
In222       O229   2.265       .  S
In222       O230   2.243   1_655  S
In222       O231   2.245       .  S
In222       O234   2.211       .  S
In222       O896   2.233       .  S
In222       O897   2.228       .  S
C223        O229   1.264       .  A
C223        O231   1.257       .  A
C223        C521   1.478       .  S
O224       In894   2.228   1_554  S
O224        C232   1.261       .  A
O225       In894   2.233   1_554  S
O225        C232   1.260       .  A
C226        O233   1.263       .  A
C226        O227   1.265       .  A
C226        C638   1.482       .  S
C228        O230   1.261   1_655  A
C228        O234   1.261       .  A
C228        C505   1.458   1_655  S
C232        C501   1.464       .  S
In235       O237   2.209       .  S
In235       O238   2.242   1_455  S
In235       O246   2.216       .  S
In235       O240   2.269       .  S
In235       O242   2.270       .  S
In235       O243   2.236   1_455  S
In235       O244   2.236   1_455  S
In235       O247   2.216       .  S
C236        O242   1.267   1_655  A
C236        O244   1.257       .  A
C236        C497   1.479       .  S
O237        C245   1.264   1_455  A
O238        C245   1.264       .  A
C239        O246   1.263       .  A
C239        O240   1.267       .  A
C239        C546   1.481       .  S
C241        O243   1.262   1_455  A
C241        O247   1.261       .  A
C241        C506   1.462   1_455  S
C245        C502   1.463       .  S
In248       O250   2.222       .  S
In248       O251   2.241       .  S
In248       O259   2.221       .  S
In248       O253   2.265       .  S
In248       O255   2.270       .  S
In248       O256   2.241       .  S
In248       O257   2.226       .  S
In248       O260   2.205       .  S
C249        O255   1.271       .  A
C249        O257   1.259       .  A
C249        C498   1.480   1_545  S
O250        C258   1.263       .  A
O251        C258   1.266       .  A
C252        O259   1.265       .  A
C252        O253   1.270       .  A
C252        C570   1.486       .  S
C254        O256   1.269       .  A
C254        O260   1.263       .  A
C254        C517   1.465       .  S
C258        C514   1.471       .  S
In261       O272   2.217       .  S
In261       O266   2.270       .  S
In261       O268   2.268       .  S
In261       O269   2.242       .  S
In261       O270   2.226       .  S
In261       O273   2.213       .  S
In261       O935   2.222   1_554  S
In261       O936   2.220   1_554  S
C262        O268   1.267       .  A
C262        O270   1.258       .  A
C262        C494   1.478       .  S
O263       In933   2.226       .  S
O263        C271   1.263       .  A
O264       In933   2.225       .  S
O264        C271   1.262       .  A
C265        O272   1.261       .  A
C265        O266   1.268       .  A
C265        C533   1.476       .  S
C267        O269   1.262       .  A
C267        O273   1.262       .  A
C267        C485   1.462       .  S
C271        C489   1.462       .  S
In274       O276   2.223       .  S
In274       O277   2.246       .  S
In274       O285   2.225       .  S
In274       O279   2.273       .  S
In274       O281   2.267       .  S
In274       O283   2.230       .  S
In274       O954   2.230       .  S
In274       O958   2.229       .  S
C275        O281   1.269       .  A
C275        O283   1.259       .  A
C275        C493   1.481       .  S
O276        C284   1.262       .  A
O277        C284   1.264       .  A
C278        O285   1.262       .  A
C278        O279   1.269       .  A
C278        C581   1.480       .  S
C280        O282   1.264       .  A
C280        O286   1.259       .  A
C280        C481   1.468       .  S
O282       In946   2.233   1_554  S
C284        C477   1.469       .  S
O286       In946   2.240   1_554  S
In287       O289   2.213       .  S
In287       O290   2.239       .  S
In287       O298   2.242       .  S
In287       O292   2.268       .  S
In287       O294   2.269       .  S
In287       O295   2.226       .  S
In287       O296   2.247       .  S
In287       O299   2.223       .  S
C288        O294   1.266       .  A
C288        O296   1.258       .  A
C288        C473   1.483       .  S
O289        C297   1.262       .  A
O290        C297   1.262       .  A
C291        O298   1.263       .  A
C291        O292   1.266       .  A
C291        C634   1.486       .  S
C293        O295   1.262       .  A
C293        O299   1.262       .  A
C293        C486   1.462       .  S
C297        C490   1.461       .  S
In300       O302   2.218       .  S
In300       O303   2.230       .  S
In300       O311   2.218       .  S
In300       O305   2.263       .  S
In300       O307   2.261       .  S
In300       O308   2.248       .  S
In300       O309   2.234       .  S
In300       O312   2.210       .  S
C301        O307   1.270       .  A
C301        O309   1.262       .  A
C301        C474   1.484       .  S
O302        C310   1.265       .  A
O303        C310   1.268       .  A
C304        O311   1.262       .  A
C304        O305   1.270       .  A
C304        C469   1.477       .  S
C306        O308   1.268       .  A
C306        O312   1.261       .  A
C306        C482   1.467       .  S
C310        C478   1.469       .  S
In313       O315   2.235       .  S
In313       O316   2.259       .  S
In313       O324   2.212       .  S
In313       O318   2.251       .  S
In313       O320   2.258       .  S
In313       O321   2.251       .  S
In313       O322   2.229       .  S
In313       O325   2.247       .  S
C314        O320   1.264       .  A
C314        O322   1.258       .  A
C314        C465   1.472       .  S
O315        C323   1.262       .  A
O316        C323   1.265       .  A
C317        O324   1.265       .  A
C317        O318   1.267       .  A
C317        C610   1.474       .  S
C319        O321   1.264       .  A
C319        O325   1.259       .  A
C319        C457   1.475       .  S
C323       C1134   1.476       .  S
In326       O328   2.222       .  S
In326       O329   2.226       .  S
In326       O337   2.209       .  S
In326       O331   2.260       .  S
In326       O333   2.260       .  S
In326       O334   2.251       .  S
In326       O335   2.217       .  S
In326       O338   2.213       .  S
C327        O333   1.267       .  A
C327        O335   1.259       .  A
C327        C466   1.473       .  S
O328        C336   1.263       .  A
O329        C336   1.265       .  A
C330        O337   1.262       .  A
C330        O331   1.268       .  A
C330        C445   1.470       .  S
C332        O334   1.264       .  A
C332        O338   1.262       .  A
C332        C453   1.467       .  S
C336        C450   1.465       .  S
In339       O341   2.215       .  S
In339       O342   2.252       .  S
In339       O350   2.215       .  S
In339       O344   2.265       .  S
In339       O346   2.265       .  S
In339       O347   2.224       .  S
In339       O348   2.228       .  S
In339       O351   2.232       .  S
C340        O346   1.267       .  A
C340        O348   1.259       .  A
C340        C442   1.479       .  S
O341        C349   1.262       .  A
O342        C349   1.264       .  A
C343        O350   1.261       .  A
C343        O344   1.268       .  A
C343        C509   1.474       .  S
C345        O347   1.264       .  A
C345        O351   1.263       .  A
C345        C454   1.466       .  S
C349       C1121   1.468   1_554  S
In352       O354   2.249       .  S
In352       O355   2.248       .  S
In352       O363   2.233       .  S
In352       O357   2.262       .  S
In352       O359   2.254       .  S
In352       O360   2.261       .  S
In352       O361   2.236       .  S
In352       O364   2.230       .  S
C353        O359   1.267       .  A
C353        O361   1.261       .  A
C353        C441   1.477       .  S
O354        C362   1.263       .  A
O355        C362   1.265       .  A
C356        O363   1.264       .  A
C356        O357   1.266       .  A
C356        C470   1.482       .  S
C358        O360   1.267       .  A
C358        O364   1.261       .  A
C358        C458   1.476       .  S
C362        C461   1.479       .  S
In365       O367   2.219       .  S
In365       O368   2.244       .  S
In365       O376   2.210       .  S
In365       O370   2.269       .  S
In365       O372   2.259       .  S
In365       O373   2.239       .  S
In365       O374   2.229   1_655  S
In365       O377   2.227       .  S
C366        O372   1.268       .  A
C366        O374   1.258   1_655  A
C366        C437   1.475       .  S
O367        C375   1.264       .  A
O368        C375   1.265       .  A
C369        O376   1.264       .  A
C369        O370   1.268       .  A
C369        C658   1.482       .  S
C371        O373   1.264       .  A
C371        O377   1.262       .  A
C371        C433   1.469       .  S
C375        C429   1.468   1_655  S
In378       O380   2.209       .  S
In378       O381   2.229   1_455  S
In378       O389   2.199       .  S
In378       O383   2.258       .  S
In378       O385   2.256       .  S
In378       O386   2.237   1_455  S
In378       O387   2.217   1_455  S
In378       O390   2.202       .  S
C379        O385   1.271   1_655  A
C379        O387   1.260       .  A
C379        C438   1.475       .  S
O380        C388   1.264   1_455  A
O381        C388   1.267       .  A
C382        O389   1.265       .  A
C382        O383   1.271       .  A
C382        C446   1.478       .  S
C384        O386   1.270   1_455  A
C384        O390   1.264       .  A
C384        C426   1.464   1_455  S
C388        C421   1.465       .  S
In391       O402   2.212       .  S
In391       O396   2.257       .  S
In391       O398   2.258       .  S
In391       O399   2.250   1_455  S
In391       O400   2.231   1_455  S
In391       O403   2.211       .  S
In391      O1065   2.224       .  S
In391      O1066   2.227   1_455  S
C392        O398   1.269       .  A
C392        O400   1.261   1_455  A
C392        C417   1.478   1_455  S
O393      In1063   2.237   1_554  S
O393        C401   1.262   1_455  A
O394      In1063   2.237   1_654  S
O394        C401   1.261       .  A
C395        O402   1.263       .  A
C395        O396   1.271       .  A
C395        C526   1.475       .  S
C397        O399   1.267       .  A
C397        O403   1.263   1_655  A
C397        C434   1.467       .  S
C401        C430   1.468       .  S
In404       O406   2.212       .  S
In404       O407   2.243   1_655  S
In404       O415   2.211       .  S
In404       O409   2.260       .  S
In404       O411   2.269       .  S
In404       O413   2.221       .  S
In404      O1084   2.224   1_654  S
In404      O1088   2.224   1_554  S
C405        O411   1.267       .  A
C405        O413   1.258       .  A
C405        C418   1.479       .  S
O406        C414   1.262       .  A
O407        C414   1.263   1_455  A
C408        O415   1.262       .  A
C408        O409   1.269       .  A
C408        C562   1.472       .  S
C410        O412   1.267       .  A
C410        O416   1.263       .  A
C410        C425   1.466       .  S
O412      In1076   2.222       .  S
C414        C422   1.464   1_655  S
O416      In1076   2.230       .  S
C417       C1090   1.351       .  D
C417       H1091   1.086   1_655  S
C418       C1089   1.351   1_655  D
C418       H1092   1.086       .  S
H419       C1089   1.086       .  S
H420       C1090   1.086       .  S
C421        C422   1.341   1_655  D
C421        H423   1.087       .  S
C422        H424   1.086       .  S
C425        C426   1.337       .  D
C425        H427   1.086       .  S
C426        H428   1.088   1_655  S
C429        C430   1.341   1_455  D
C429        H431   1.086       .  S
C430        H432   1.087       .  S
C433        C434   1.343       .  D
C433        H435   1.087   1_655  S
C434        H436   1.086       .  S
C437        C438   1.338       .  D
C437        H439   1.087   1_655  S
C438        H440   1.087       .  S
C441        C442   1.350       .  D
C441        H443   1.086       .  S
C442        H444   1.086       .  S
C445        C446   1.345       .  D
C445        H447   1.087       .  S
C446        H448   1.086       .  S
C449       C1021   1.467       .  S
C449        C450   1.342       .  D
C449       H1123   1.086       .  S
C450        H452   1.087       .  S
H451       C1121   1.086       .  S
C453        C454   1.341       .  D
C453        H455   1.086       .  S
C454        H456   1.087       .  S
C457        C458   1.342       .  D
C457        H459   1.086       .  S
C458        H460   1.087       .  S
C461        C462   1.346       .  D
C461        H463   1.087       .  S
C462        C995   1.479   1_554  S
C462       H1136   1.086       .  S
H464       C1134   1.086       .  S
C465        C466   1.349       .  D
C465        H467   1.086       .  S
C466        H468   1.086       .  S
C469        C470   1.346       .  D
C469        H471   1.087       .  S
C470        H472   1.086       .  S
C473        C474   1.353       .  D
C473        H475   1.086       .  S
C474        H476   1.086       .  S
C477        C478   1.343       .  D
C477        H479   1.086       .  S
C478        H480   1.087       .  S
C481        C482   1.338       .  D
C481        H483   1.086       .  S
C482        H484   1.088       .  S
C485        C486   1.339       .  D
C485        H487   1.086       .  S
C486        H488   1.087       .  S
C489        C490   1.338       .  D
C489        H491   1.087       .  S
C490        H492   1.086       .  S
C493       C1166   1.352       .  D
C493        H495   1.086       .  S
C494       C1165   1.351   1_554  D
C494        H496   1.086       .  S
C497        C498   1.340       .  D
C497        H499   1.086       .  S
C498        H500   1.087   1_655  S
C501        C502   1.339       .  D
C501        H503   1.087   1_655  S
C502        H504   1.086       .  S
C505        C506   1.338   1_455  D
C505        H507   1.086       .  S
C506        H508   1.087       .  S
C509        C510   1.344       .  D
C509        H511   1.087       .  S
C510        H512   1.086       .  S
C513        C514   1.343       .  D
C513        H515   1.086       .  S
C514        H516   1.087   1_655  S
C517        C518   1.338   1_655  D
C517        H519   1.088       .  S
C518        H520   1.086       .  S
C521       C1194   1.350   1_655  D
C521        H523   1.086       .  S
C522       C1193   1.349   1_454  D
C522        H524   1.086       .  S
C525        C526   1.344       .  D
C525        H527   1.086       .  S
C526        H528   1.087       .  S
C529        C530   1.352       .  D
C529        H531   1.086       .  S
C530        H532   1.086       .  S
C533        C534   1.345       .  D
C533        H535   1.087       .  S
C534        H536   1.086       .  S
C537        C538   1.340       .  D
C537        H539   1.087       .  S
C538        H540   1.086       .  S
C541        C848   1.461       .  S
C541        C542   1.339       .  D
C541       H1215   1.086       .  S
C542        H544   1.087       .  S
H543       C1213   1.086       .  S
C545        C546   1.345       .  D
C545        H547   1.087       .  S
C546        H548   1.086       .  S
C549        C550   1.343       .  D
C549        H551   1.087       .  S
C550        H552   1.086       .  S
C553        C554   1.341       .  D
C553        H555   1.086       .  S
C554        C861   1.481   1_554  S
C554       H1228   1.087       .  S
H556       C1226   1.088       .  S
C557        C558   1.350       .  D
C557        H559   1.086       .  S
C558        H560   1.086       .  S
C561        C562   1.344       .  D
C561        H563   1.086       .  S
C562        H564   1.087       .  S
C565        C566   1.348       .  D
C565        H567   1.086       .  S
C566        H568   1.086       .  S
C569        C570   1.347       .  D
C569        H571   1.087       .  S
C570        H572   1.086       .  S
C573        C574   1.340       .  D
C573        H575   1.086       .  S
C574        C813   1.471       .  S
C574       H1248   1.087       .  S
H576       C1246   1.086       .  S
C577        C578   1.344       .  D
C577        H579   1.087       .  S
C578        H580   1.086       .  S
C581        C582   1.345       .  D
C581        H583   1.087       .  S
C582        H584   1.086       .  S
C585        C586   1.343       .  D
C585        H587   1.087       .  S
C586        H588   1.086       .  S
C589        C787   1.476   1_554  S
C589        C590   1.346       .  D
C589       H1263   1.086       .  S
C590        H592   1.087       .  S
H591       C1261   1.086       .  S
C593        C594   1.353       .  D
C593        H595   1.086       .  S
C594        H596   1.086       .  S
C597        C598   1.345       .  D
C597        H599   1.087       .  S
C598        H600   1.086       .  S
C601        C602   1.344       .  D
C601        H603   1.087       .  S
C602        H604   1.086       .  S
C605        C606   1.350       .  D
C605        H607   1.086       .  S
C606        H608   1.086       .  S
C609        C610   1.342       .  D
C609        H611   1.087       .  S
C610        H612   1.086       .  S
C613        C614   1.338       .  D
C613        H615   1.088       .  S
C614        H616   1.086       .  S
C617        C618   1.345       .  D
C617        H619   1.087       .  S
C618        H620   1.086       .  S
C621        C622   1.339       .  D
C621        H623   1.086       .  S
C622        H624   1.087       .  S
C625        C626   1.339       .  D
C625        H627   1.087       .  S
C626        H628   1.086       .  S
C629       C1302   1.348       .  D
C629        H631   1.086       .  S
C630       C1301   1.351   1_554  D
C630        H632   1.086       .  S
C633        C634   1.346       .  D
C633        H635   1.087       .  S
C634        H636   1.085       .  S
C637        C638   1.345       .  D
C637        H639   1.087       .  S
C638        H640   1.086       .  S
C641        C642   1.354       .  D
C641        H643   1.086       .  S
C642        H644   1.086       .  S
C645        C646   1.346       .  D
C645        H647   1.086       .  S
C646        H648   1.087       .  S
C649        C692   1.464       .  S
C649        C650   1.338       .  D
C649       H1323   1.086       .  S
C650        H652   1.087       .  S
H651       C1321   1.086       .  S
C653        C654   1.338       .  D
C653        H655   1.087       .  S
C654        H656   1.086       .  S
C657        C658   1.345       .  D
C657        H659   1.087       .  S
C658        H660   1.086       .  S
C661        C662   1.347       .  D
C661        H663   1.086       .  S
C662        H664   1.087       .  S
C665        C705   1.473   1_554  S
C665        C666   1.339       .  D
C665        H667   1.087       .  S
C666        H668   1.086       .  S
C669        C670   1.352       .  D
C669        H671   1.086       .  S
C670        H672   1.086       .  S
In673       O675   2.208       .  S
In673       O676   2.256       .  S
In673       O684   2.199       .  S
In673       O678   2.252       .  S
In673       O680   2.241       .  S
In673       O681   2.245       .  S
In673       O682   2.228       .  S
In673       O685   2.224       .  S
C674        O680   1.269       .  A
C674        O682   1.263       .  A
C674       C1341   1.474       .  S
O675        C683   1.262       .  A
O676        C683   1.271       .  A
C677        O684   1.266       .  A
C677        O678   1.270       .  A
C677       C1329   1.477       .  S
C679        O681   1.270       .  A
C679        O685   1.262       .  A
C679       C1338   1.473       .  S
C683       C1333   1.471       .  S
In686       O688   2.236       .  S
In686       O689   2.228       .  S
In686       O697   2.217       .  S
In686       O691   2.270       .  S
In686       O693   2.271       .  S
In686       O694   2.240       .  S
In686       O695   2.222       .  S
In686       O698   2.224       .  S
C687        O693   1.265       .  A
C687        O695   1.257       .  A
C687       C1342   1.476       .  S
O688        C696   1.262       .  A
O689        C696   1.260       .  A
C690        O697   1.262       .  A
C690        O691   1.266       .  A
C690       C1318   1.479       .  S
C692        O694   1.261       .  A
C692        O698   1.263       .  A
C696       C1325   1.466       .  S
In699       O701   2.212       .  S
In699       O702   2.230       .  S
In699       O710   2.208       .  S
In699       O704   2.239       .  S
In699       O706   2.236       .  S
In699       O707   2.252       .  S
In699       O708   2.228       .  S
In699       O711   2.202       .  S
C700        O706   1.272       .  A
C700        O708   1.266       .  A
C700       C1313   1.478       .  S
O701        C709   1.265       .  A
O702        C709   1.274       .  A
C703        O710   1.267       .  A
C703        O704   1.273       .  A
C703       C1309   1.473       .  S
C705        O707   1.274       .  A
C705        O711   1.264       .  A
C709       C1334   1.469       .  S
In712       O714   2.223       .  S
In712       O715   2.242       .  S
In712       O723   2.219       .  S
In712       O717   2.275       .  S
In712       O719   2.275       .  S
In712       O720   2.219       .  S
In712       O721   2.225       .  S
In712       O724   2.227       .  S
C713        O719   1.268       .  A
C713        O721   1.258       .  A
C713       C1314   1.481       .  S
O714        C722   1.262       .  A
O715        C722   1.261       .  A
C716        O723   1.260       .  A
C716        O717   1.269       .  A
C716       C1305   1.477       .  S
C718        O720   1.263       .  A
C718        O724   1.264       .  A
C718       C1322   1.462       .  S
C722       C1326   1.466       .  S
In725       O736   2.210       .  S
In725       O730   2.262       .  S
In725       O732   2.252       .  S
In725       O733   2.247       .  S
In725       O734   2.232       .  S
In725       O737   2.212       .  S
C726        O732   1.265       .  A
C726        O734   1.259       .  A
C726       C1302   1.472       .  S
O727        C735   1.262       .  A
O728        C735   1.259       .  A
C729        O736   1.261       .  A
C729        O730   1.268       .  A
C729       C1317   1.471       .  S
C731        O733   1.263       .  A
C731        O737   1.261       .  A
C731       C1293   1.464       .  S
C735       C1297   1.463       .  S
In738       O740   2.214       .  S
In738       O741   2.251       .  S
In738       O749   2.209       .  S
In738       O743   2.260       .  S
In738       O745   2.261       .  S
In738       O747   2.224       .  S
C739        O745   1.270       .  A
C739        O747   1.261       .  A
C739       C1301   1.481   1_545  S
O740        C748   1.264       .  A
O741        C748   1.268       .  A
C742        O749   1.263       .  A
C742        O743   1.271       .  A
C742       C1281   1.475       .  S
C744        O746   1.268       .  A
C744        O750   1.262       .  A
C744       C1286   1.472       .  S
C748       C1290   1.473       .  S
In751       O753   2.217       .  S
In751       O754   2.247       .  S
In751       O762   2.229       .  S
In751       O756   2.269       .  S
In751       O758   2.265       .  S
In751       O759   2.234       .  S
In751       O760   2.246       .  S
In751       O763   2.228       .  S
C752        O758   1.265       .  A
C752        O760   1.258       .  A
C752       C1277   1.481       .  S
O753        C761   1.262       .  A
O754        C761   1.261       .  A
C755        O762   1.263       .  A
C755        O756   1.266       .  A
C755       C1274   1.482       .  S
C757        O759   1.262       .  A
C757        O763   1.261       .  A
C757       C1294   1.465       .  S
C761       C1298   1.464       .  S
In764       O766   2.226       .  S
In764       O767   2.234       .  S
In764       O775   2.218       .  S
In764       O769   2.262       .  S
In764       O771   2.259       .  S
In764       O772   2.256       .  S
In764       O773   2.231       .  S
In764       O776   2.208       .  S
C765        O771   1.270       .  A
C765        O773   1.262       .  A
C765       C1278   1.482   1_545  S
O766        C774   1.265       .  A
O767        C774   1.268       .  A
C768        O775   1.263       .  A
C768        O769   1.270       .  A
C768       C1269   1.476       .  S
C770        O772   1.270       .  A
C770        O776   1.261       .  A
C770       C1285   1.470       .  S
C774       C1289   1.472       .  S
In777       O779   2.226       .  S
In777       O780   2.257       .  S
In777       O788   2.218       .  S
In777       O782   2.268       .  S
In777       O784   2.264       .  S
In777       O785   2.243       .  S
In777       O786   2.236       .  S
In777       O789   2.236       .  S
C778        O784   1.269       .  A
C778        O786   1.260       .  A
C778       C1265   1.481       .  S
O779        C787   1.263       .  A
O780        C787   1.267       .  A
C781        O788   1.263       .  A
C781        O782   1.270       .  A
C781       C1254   1.478       .  S
C783        O785   1.268       .  A
C783        O789   1.261       .  A
C783       C1258   1.474       .  S
In790       O792   2.236       .  S
In790       O793   2.228       .  S
In790       O801   2.219       .  S
In790       O795   2.279       .  S
In790       O797   2.271       .  S
In790       O798   2.245       .  S
In790       O799   2.233       .  S
In790       O802   2.226       .  S
C791        O797   1.268       .  A
C791        O799   1.259       .  A
C791       C1266   1.482       .  S
O792        C800   1.265       .  A
O793        C800   1.264       .  A
C794        O801   1.261       .  A
C794        O795   1.268       .  A
C794       C1241   1.478       .  S
C796        O798   1.263       .  A
C796        O802   1.262       .  A
C796       C1250   1.469       .  S
C800       C1245   1.469       .  S
In803       O805   2.220       .  S
In803       O806   2.254       .  S
In803       O814   2.213       .  S
In803       O808   2.259       .  S
In803       O810   2.254       .  S
In803       O811   2.239       .  S
In803       O812   2.225       .  S
In803       O815   2.227       .  S
C804        O810   1.267       .  A
C804        O812   1.260       .  A
C804       C1237   1.474       .  S
O805        C813   1.261       .  A
O806        C813   1.267       .  A
C807        O814   1.264       .  A
C807        O808   1.267       .  A
C807       C1233   1.479       .  S
C809        O811   1.265       .  A
C809        O815   1.263       .  A
C809       C1249   1.470       .  S
In816       O818   2.244       .  S
In816       O819   2.251       .  S
In816       O827   2.224       .  S
In816       O821   2.261       .  S
In816       O823   2.252       .  S
In816       O824   2.261       .  S
In816       O825   2.221       .  S
In816       O828   2.214       .  S
C817        O823   1.268       .  A
C817        O825   1.261       .  A
C817       C1238   1.475       .  S
O818        C826   1.264       .  A
O819        C826   1.267       .  A
C820        O827   1.265       .  A
C820        O821   1.268       .  A
C820       C1270   1.483       .  S
C822        O824   1.270       .  A
C822        O828   1.261       .  A
C822       C1257   1.473       .  S
C826       C1262   1.481       .  S
In829       O831   2.223       .  S
In829       O832   2.265       .  S
In829       O840   2.196       .  S
In829       O834   2.253       .  S
In829       O836   2.249       .  S
In829       O837   2.234       .  S
In829       O838   2.225       .  S
In829       O841   2.232       .  S
C830        O836   1.274       .  A
C830        O838   1.266       .  A
C830       C1230   1.482       .  S
O831        C839   1.266       .  A
O832        C839   1.274       .  A
C833        O840   1.267       .  A
C833        O834   1.275       .  A
C833       C1217   1.474       .  S
C835        O837   1.274       .  A
C835        O841   1.267       .  A
C835       C1225   1.479       .  S
C839       C1221   1.485       .  S
In842       O844   2.230       .  S
In842       O845   2.219       .  S
In842       O853   2.225       .  S
In842       O847   2.275       .  S
In842       O849   2.275       .  S
In842       O850   2.236       .  S
In842       O851   2.239       .  S
In842       O854   2.219       .  S
C843        O849   1.267       .  A
C843        O851   1.257       .  A
C843       C1229   1.483       .  S
O844        C852   1.263       .  A
O845        C852   1.260       .  A
C846        O853   1.262       .  A
C846        O847   1.267       .  A
C846       C1206   1.485       .  S
C848        O850   1.260       .  A
C848        O854   1.263       .  A
C852       C1209   1.461       .  S
In855       O857   2.228       .  S
In855       O858   2.259       .  S
In855       O866   2.215       .  S
In855       O860   2.259       .  S
In855       O862   2.241       .  S
In855       O863   2.270       .  S
In855       O864   2.226       .  S
In855       O867   2.214       .  S
C856        O862   1.271       .  A
C856        O864   1.264       .  A
C856       C1202   1.476       .  S
O857        C865   1.264       .  A
O858        C865   1.273       .  A
C859        O866   1.267       .  A
C859        O860   1.272       .  A
C859       C1197   1.479       .  S
C861        O863   1.274       .  A
C861        O867   1.263       .  A
C865       C1222   1.483       .  S
In868       O870   2.214       .  S
In868       O871   2.240       .  S
In868       O879   2.215       .  S
In868       O873   2.271       .  S
In868       O875   2.274       .  S
In868       O876   2.219       .  S
In868       O877   2.222       .  S
In868       O880   2.216       .  S
C869        O875   1.267       .  A
C869        O877   1.257       .  A
C869       C1201   1.479       .  S
O870        C878   1.263       .  A
O871        C878   1.261       .  A
C872        O879   1.261       .  A
C872        O873   1.268       .  A
C872       C1273   1.475       .  S
C874        O876   1.262       .  A
C874        O880   1.263       .  A
C874       C1214   1.459       .  S
C878       C1210   1.462       .  S
In881       O883   2.232       .  S
In881       O884   2.252   1_455  S
In881       O892   2.218       .  S
In881       O886   2.256       .  S
In881       O888   2.268       .  S
In881       O890   2.233   1_455  S
C882        O888   1.266       .  A
C882        O890   1.258   1_455  A
C882       C1194   1.479   1_545  S
O883        C891   1.262       .  A
O884        C891   1.263   1_655  A
C885        O892   1.264       .  A
C885        O886   1.268       .  A
C885       C1182   1.478       .  S
C887        O889   1.261       .  A
C887        O893   1.261   1_655  A
C887       C1190   1.473       .  S
C891       C1185   1.472   1_455  S
In894       O905   2.228       .  S
In894       O899   2.254       .  S
In894       O901   2.259       .  S
In894       O902   2.240   1_655  S
In894       O903   2.247       .  S
In894       O906   2.217       .  S
C895        O901   1.263       .  A
C895        O903   1.258       .  A
C895       C1193   1.476       .  S
O896        C904   1.261       .  A
O897        C904   1.260       .  A
C898        O905   1.263       .  A
C898        O899   1.265       .  A
C898       C1310   1.477       .  S
C900        O902   1.261   1_655  A
C900        O906   1.261       .  A
C900       C1177   1.459   1_655  S
C904       C1173   1.462       .  S
In907       O909   2.199       .  S
In907       O910   2.241   1_455  S
In907       O918   2.216       .  S
In907       O912   2.261       .  S
In907       O914   2.255       .  S
In907       O915   2.239   1_455  S
In907       O916   2.234   1_455  S
In907       O919   2.212       .  S
C908        O914   1.266   1_655  A
C908        O916   1.257       .  A
C908       C1169   1.474       .  S
O909        C917   1.263   1_455  A
O910        C917   1.265       .  A
C911        O918   1.264       .  A
C911        O912   1.267       .  A
C911       C1218   1.480       .  S
C913        O915   1.263       .  A
C913        O919   1.261   1_655  A
C913       C1178   1.463       .  S
C917       C1174   1.462       .  S
In920       O922   2.245       .  S
In920       O923   2.242   1_655  S
In920       O931   2.221       .  S
In920       O925   2.268       .  S
In920       O927   2.266       .  S
In920       O928   2.243   1_655  S
In920       O929   2.223       .  S
In920       O932   2.232       .  S
C921        O927   1.267       .  A
C921        O929   1.256       .  A
C921       C1170   1.473   1_545  S
O922        C930   1.261       .  A
O923        C930   1.262   1_455  A
C924        O931   1.264       .  A
C924        O925   1.267       .  A
C924       C1242   1.483       .  S
C926        O928   1.265   1_655  A
C926        O932   1.265       .  A
C926       C1189   1.472   1_655  S
C930       C1186   1.473   1_655  S
In933       O944   2.222       .  S
In933       O938   2.280       .  S
In933       O940   2.267       .  S
In933       O941   2.242       .  S
In933       O942   2.239       .  S
In933       O945   2.225       .  S
C934        O940   1.267       .  A
C934        O942   1.257       .  A
C934       C1166   1.480       .  S
O935        C943   1.264       .  A
O936        C943   1.263       .  A
C937        O944   1.261       .  A
C937        O938   1.268       .  A
C937       C1205   1.479       .  S
C939        O941   1.261       .  A
C939        O945   1.262       .  A
C939       C1157   1.466       .  S
C943       C1161   1.462       .  S
In946       O948   2.222       .  S
In946       O949   2.259       .  S
In946       O957   2.228       .  S
In946       O951   2.258       .  S
In946       O953   2.265       .  S
In946       O955   2.242       .  S
C947        O953   1.265       .  A
C947        O955   1.257       .  A
C947       C1165   1.477       .  S
O948        C956   1.261       .  A
O949        C956   1.263       .  A
C950        O957   1.265       .  A
C950        O951   1.267       .  A
C950       C1253   1.483       .  S
C952        O954   1.265       .  A
C952        O958   1.264       .  A
C952       C1153   1.468       .  S
C956       C1149   1.471       .  S
In959       O961   2.216       .  S
In959       O962   2.244       .  S
In959       O970   2.232       .  S
In959       O964   2.266       .  S
In959       O966   2.266       .  S
In959       O967   2.228       .  S
In959       O968   2.231       .  S
In959       O971   2.235       .  S
C960        O966   1.264       .  A
C960        O968   1.257       .  A
C960       C1145   1.476       .  S
O961        C969   1.261       .  A
O962        C969   1.260       .  A
C963        O970   1.263       .  A
C963        O964   1.265       .  A
C963       C1306   1.482       .  S
C965        O967   1.260       .  A
C965        O971   1.262       .  A
C965       C1158   1.465       .  S
C969       C1162   1.462       .  S
In972       O974   2.243       .  S
In972       O975   2.239       .  S
In972       O983   2.229       .  S
In972       O977   2.260       .  S
In972       O979   2.259       .  S
In972       O980   2.252       .  S
In972       O981   2.237       .  S
In972       O984   2.221       .  S
C973        O979   1.264       .  A
C973        O981   1.258       .  A
C973       C1146   1.475       .  S
O974        C982   1.262       .  A
O975        C982   1.262       .  A
C976        O983   1.263       .  A
C976        O977   1.265       .  A
C976       C1141   1.480       .  S
C978        O980   1.263       .  A
C978        O984   1.261       .  A
C978       C1154   1.468       .  S
C982       C1150   1.471       .  S
In985       O987   2.238       .  S
In985       O988   2.260       .  S
In985       O996   2.225       .  S
In985       O990   2.257       .  S
In985       O992   2.268       .  S
In985       O993   2.251       .  S
In985       O994   2.240       .  S
In985       O997   2.243       .  S
C986        O992   1.267       .  A
C986        O994   1.258       .  A
C986       C1137   1.481       .  S
O987        C995   1.262       .  A
O988        C995   1.266       .  A
C989        O996   1.266       .  A
C989        O990   1.268       .  A
C989       C1282   1.481       .  S
C991        O993   1.266       .  A
C991        O997   1.260       .  A
C991       C1129   1.475       .  S
In998      O1000   2.217       .  S
In998      O1001   2.223       .  S
In998      O1009   2.202       .  S
In998      O1003   2.266       .  S
In998      O1005   2.265       .  S
In998      O1006   2.240       .  S
In998      O1007   2.223       .  S
In998      O1010   2.208       .  S
C999       O1005   1.271       .  A
C999       O1007   1.261       .  A
C999       C1138   1.482       .  S
O1000      C1008   1.266       .  A
O1001      C1008   1.267       .  A
C1002      O1009   1.263       .  A
C1002      O1003   1.272       .  A
C1002      C1117   1.472       .  S
C1004      O1006   1.268       .  A
C1004      O1010   1.262       .  A
C1004      C1125   1.465       .  S
C1008      C1122   1.466       .  S
In1011     O1013   2.207       .  S
In1011     O1014   2.253       .  S
In1011     O1022   2.214       .  S
In1011     O1016   2.253       .  S
In1011     O1018   2.256       .  S
In1011     O1019   2.226       .  S
In1011     O1020   2.237       .  S
In1011     O1023   2.227       .  S
C1012      O1018   1.267       .  A
C1012      O1020   1.260       .  A
C1012      C1114   1.478       .  S
O1013      C1021   1.262       .  A
O1014      C1021   1.266       .  A
C1015      O1022   1.264       .  A
C1015      O1016   1.270       .  A
C1015      C1181   1.473       .  S
C1017      O1019   1.267       .  A
C1017      O1023   1.261       .  A
C1017      C1126   1.466       .  S
In1024     O1026   2.228       .  S
In1024     O1027   2.242       .  S
In1024     O1035   2.215       .  S
In1024     O1029   2.254       .  S
In1024     O1031   2.255       .  S
In1024     O1032   2.262       .  S
In1024     O1033   2.221       .  S
In1024     O1036   2.215       .  S
C1025      O1031   1.270       .  A
C1025      O1033   1.263       .  A
C1025      C1113   1.479       .  S
O1026      C1034   1.265       .  A
O1027      C1034   1.270       .  A
C1028      O1035   1.264       .  A
C1028      O1029   1.270       .  A
C1028      C1142   1.474       .  S
C1030      O1032   1.270       .  A
C1030      O1036   1.261       .  A
C1030      C1130   1.475       .  S
C1034      C1133   1.476       .  S
In1037     O1039   2.192       .  S
In1037     O1040   2.237       .  S
In1037     O1048   2.194       .  S
In1037     O1042   2.246       .  S
In1037     O1044   2.230       .  S
In1037     O1045   2.231       .  S
In1037     O1046   2.216       .  S
In1037     O1049   2.200       .  S
C1038      O1044   1.275       .  A
C1038      O1046   1.266       .  A
C1038      C1109   1.475       .  S
O1039      C1047   1.265       .  A
O1040      C1047   1.274       .  A
C1041      O1048   1.266       .  A
C1041      O1042   1.274       .  A
C1041      C1330   1.469       .  S
C1043      O1045   1.273       .  A
C1043      O1049   1.268       .  A
C1043      C1105   1.468       .  S
C1047      C1101   1.466       .  S
In1050     O1052   2.234       .  S
In1050     O1053   2.229   1_455  S
In1050     O1061   2.208       .  S
In1050     O1055   2.267       .  S
In1050     O1057   2.270       .  S
In1050     O1058   2.245   1_455  S
In1050     O1059   2.221   1_455  S
In1050     O1062   2.214       .  S
C1051      O1057   1.267   1_655  A
C1051      O1059   1.256       .  A
C1051      C1110   1.473       .  S
O1052      C1060   1.262   1_455  A
O1053      C1060   1.262       .  A
C1054      O1061   1.263       .  A
C1054      O1055   1.268       .  A
C1054      C1118   1.480       .  S
C1056      O1058   1.264       .  A
C1056      O1062   1.263   1_655  A
C1056      C1098   1.465       .  S
C1060      C1093   1.467       .  S
In1063     O1074   2.228       .  S
In1063     O1068   2.280       .  S
In1063     O1070   2.253       .  S
In1063     O1071   2.242   1_455  S
In1063     O1072   2.240   1_455  S
In1063     O1075   2.226       .  S
C1064      O1070   1.267       .  A
C1064      O1072   1.261   1_455  A
C1064      C1089   1.476   1_556  S
O1065      C1073   1.262       .  A
O1066      C1073   1.268   1_655  A
C1067      O1074   1.260       .  A
C1067      O1068   1.266       .  A
C1067      C1198   1.485       .  S
C1069      O1071   1.262       .  A
C1069      O1075   1.259   1_655  A
C1069      C1106   1.461       .  S
C1073      C1102   1.468       .  S
In1076     O1078   2.210       .  S
In1076     O1079   2.251       .  S
In1076     O1087   2.209       .  S
In1076     O1081   2.261       .  S
In1076     O1083   2.263       .  S
In1076     O1085   2.223       .  S
C1077      O1083   1.269       .  A
C1077      O1085   1.260       .  A
C1077      C1090   1.479       .  S
O1078      C1086   1.263       .  A
O1079      C1086   1.266       .  A
C1080      O1087   1.263       .  A
C1080      O1081   1.271       .  A
C1080      C1234   1.473       .  S
C1082      O1084   1.264   1_655  A
C1082      O1088   1.264       .  A
C1082      C1097   1.464       .  S
C1086      C1094   1.467   1_655  S
C1093      C1094   1.342   1_655  D
C1093      H1095   1.087       .  S
C1094      H1096   1.086       .  S
C1097      C1098   1.340       .  D
C1097      H1099   1.087   1_655  S
C1098      H1100   1.086       .  S
C1101      C1102   1.336   1_655  D
C1101      H1103   1.088       .  S
C1102      H1104   1.086       .  S
C1105      C1106   1.341       .  D
C1105      H1107   1.087       .  S
C1106      H1108   1.087       .  S
C1109      C1110   1.339       .  D
C1109      H1111   1.087   1_655  S
C1110      H1112   1.087       .  S
C1113      C1114   1.350       .  D
C1113      H1115   1.086       .  S
C1114      H1116   1.086       .  S
C1117      C1118   1.345       .  D
C1117      H1119   1.087       .  S
C1118      H1120   1.086       .  S
C1121      C1122   1.342       .  D
C1122      H1124   1.087       .  S
C1125      C1126   1.337       .  D
C1125      H1127   1.087       .  S
C1126      H1128   1.086       .  S
C1129      C1130   1.340       .  D
C1129      H1131   1.086       .  S
C1130      H1132   1.087       .  S
C1133      C1134   1.346       .  D
C1133      H1135   1.087       .  S
C1137      C1138   1.353       .  D
C1137      H1139   1.086       .  S
C1138      H1140   1.086       .  S
C1141      C1142   1.345       .  D
C1141      H1143   1.086       .  S
C1142      H1144   1.087       .  S
C1145      C1146   1.349       .  D
C1145      H1147   1.086       .  S
C1146      H1148   1.086       .  S
C1149      C1150   1.343       .  D
C1149      H1151   1.086       .  S
C1150      H1152   1.087       .  S
C1153      C1154   1.342       .  D
C1153      H1155   1.087       .  S
C1154      H1156   1.086       .  S
C1157      C1158   1.339       .  D
C1157      H1159   1.086       .  S
C1158      H1160   1.087       .  S
C1161      C1162   1.338       .  D
C1161      H1163   1.087       .  S
C1162      H1164   1.086       .  S
C1165      H1167   1.086       .  S
C1166      H1168   1.086       .  S
C1169      C1170   1.338       .  D
C1169      H1171   1.086       .  S
C1170      H1172   1.087   1_655  S
C1173      C1174   1.339       .  D
C1173      H1175   1.087   1_655  S
C1174      H1176   1.086       .  S
C1177      C1178   1.340   1_455  D
C1177      H1179   1.086       .  S
C1178      H1180   1.087       .  S
C1181      C1182   1.344       .  D
C1181      H1183   1.087       .  S
C1182      H1184   1.086       .  S
C1185      C1186   1.343   1_655  D
C1185      H1187   1.086       .  S
C1186      H1188   1.087       .  S
C1189      C1190   1.342   1_455  D
C1189      H1191   1.086       .  S
C1190      H1192   1.087       .  S
C1193      H1195   1.086   1_556  S
C1194      H1196   1.086       .  S
C1197      C1198   1.348       .  D
C1197      H1199   1.086       .  S
C1198      H1200   1.086       .  S
C1201      C1202   1.351       .  D
C1201      H1203   1.086       .  S
C1202      H1204   1.086       .  S
C1205      C1206   1.347       .  D
C1205      H1207   1.087       .  S
C1206      H1208   1.086       .  S
C1209      C1210   1.337       .  D
C1209      H1211   1.087       .  S
C1210      H1212   1.086       .  S
C1213      C1214   1.338       .  D
C1214      H1216   1.087       .  S
C1217      C1218   1.344       .  D
C1217      H1219   1.087       .  S
C1218      H1220   1.086       .  S
C1221      C1222   1.343       .  D
C1221      H1223   1.087       .  S
C1222      H1224   1.086       .  S
C1225      C1226   1.341       .  D
C1225      H1227   1.086       .  S
C1229      C1230   1.353       .  D
C1229      H1231   1.086       .  S
C1230      H1232   1.086       .  S
C1233      C1234   1.344       .  D
C1233      H1235   1.085       .  S
C1234      H1236   1.087       .  S
C1237      C1238   1.349       .  D
C1237      H1239   1.086       .  S
C1238      H1240   1.086       .  S
C1241      C1242   1.346       .  D
C1241      H1243   1.087       .  S
C1242      H1244   1.086       .  S
C1245      C1246   1.341       .  D
C1245      H1247   1.087       .  S
C1249      C1250   1.343       .  D
C1249      H1251   1.087       .  S
C1250      H1252   1.086       .  S
C1253      C1254   1.345       .  D
C1253      H1255   1.086       .  S
C1254      H1256   1.087       .  S
C1257      C1258   1.339       .  D
C1257      H1259   1.087       .  S
C1258      H1260   1.086       .  S
C1261      C1262   1.347       .  D
C1262      H1264   1.087       .  S
C1265      C1266   1.353       .  D
C1265      H1267   1.086       .  S
C1266      H1268   1.086       .  S
C1269      C1270   1.347       .  D
C1269      H1271   1.086       .  S
C1270      H1272   1.086       .  S
C1273      C1274   1.345       .  D
C1273      H1275   1.087       .  S
C1274      H1276   1.086       .  S
C1277      C1278   1.352       .  D
C1277      H1279   1.086       .  S
C1278      H1280   1.086       .  S
C1281      C1282   1.344       .  D
C1281      H1283   1.087       .  S
C1282      H1284   1.086       .  S
C1285      C1286   1.338       .  D
C1285      H1287   1.087       .  S
C1286      H1288   1.086       .  S
C1289      C1290   1.345       .  D
C1289      H1291   1.087       .  S
C1290      H1292   1.086       .  S
C1293      C1294   1.341       .  D
C1293      H1295   1.086       .  S
C1294      H1296   1.087       .  S
C1297      C1298   1.338       .  D
C1297      H1299   1.087       .  S
C1298      H1300   1.086       .  S
C1301      H1303   1.086       .  S
C1302      H1304   1.086       .  S
C1305      C1306   1.345       .  D
C1305      H1307   1.087       .  S
C1306      H1308   1.086       .  S
C1309      C1310   1.343       .  D
C1309      H1311   1.087       .  S
C1310      H1312   1.086       .  S
C1313      C1314   1.351       .  D
C1313      H1315   1.086       .  S
C1314      H1316   1.086       .  S
C1317      C1318   1.344       .  D
C1317      H1319   1.087       .  S
C1318      H1320   1.086       .  S
C1321      C1322   1.339       .  D
C1322      H1324   1.087       .  S
C1325      C1326   1.339       .  D
C1325      H1327   1.087       .  S
C1326      H1328   1.086       .  S
C1329      C1330   1.344       .  D
C1329      H1331   1.086       .  S
C1330      H1332   1.087       .  S
C1333      C1334   1.338       .  D
C1333      H1335   1.088       .  S
C1334      H1336   1.086       .  S
C1337      C1338   1.340       .  D
C1337      H1339   1.087       .  S
C1338      H1340   1.086       .  S
C1341      C1342   1.349       .  D
C1341      H1343   1.086       .  S
C1342      H1344   1.086       .  S
