geometry optimzed in LAMMPS
_audit_creation_date              2020-12-01 
_audit_creation_method            'lammps2cif' 
_symmetry_space_group_name_H-M    'P1' 
_symmetry_Int_Tables_number       1 
_symmetry_cell_setting            triclinic 
loop_ 
_symmetry_equiv_pos_as_xyz 
  x,y,z 
_cell_length_a                    33.11169699 
_cell_length_b                    33.12465772450508 
_cell_length_c                    33.118971120123476 
_cell_angle_alpha                 90.64190724165942 
_cell_angle_beta                  90.22527991391986 
_cell_angle_gamma                 90.173559130389 
loop_ 
_atom_site_label 
_atom_site_type_symbol 
_atom_site_fract_x 
_atom_site_fract_y 
_atom_site_fract_z 
_atom_site_charge 
N1          N  0.95960082  0.04681481  0.50660790    -0.35700
N2          N  0.95704950  0.95863975  0.50046584    -0.56300
N3          N  0.04477983  0.95678406  0.50415254    -0.35700
N4          N  0.04719368  0.04484017  0.50377369    -0.56300
C5          C  0.92069619  0.03984830  0.49587280     0.27900
C6          C  0.96851086  0.08535093  0.49648581     0.27900
C7          C  0.03612766  0.91843590  0.49229480     0.27900
C8          C  0.08390004  0.96404238  0.49475671     0.27900
C9          C  0.91825684  0.96674570  0.51031300     0.36500
C10         C  0.96319637  0.91920088  0.50880510     0.36500
C11         C  0.04092630  0.08380247  0.51463029     0.36500
C12         C  0.08583820  0.03641241  0.51386157     0.36500
C13         C  0.90472885  0.07415958  0.47844099    -0.21000
C14         C  0.93493012  0.10282449  0.47866240    -0.21000
C15         C  0.07012065  0.90136264  0.47469254    -0.21000
C16         C  0.10027079  0.93008690  0.47640033    -0.21000
C17         C  0.89971807  0.93252034  0.52521258    -0.22000
C18         C  0.92828746  0.90255224  0.52475197    -0.22000
C19         C  0.07546665  0.09975038  0.53257157    -0.22000
C20         C  0.10407518  0.06986651  0.53159655    -0.22000
C21         C  0.89886302  0.00401533  0.50362485    -0.17400
C22         C  0.00536144  0.10552128  0.50544210    -0.17400
C23         C  0.10550764  0.99978514  0.50461123    -0.17400
C24         C  0.99924061  0.89792168  0.49969839    -0.17400
H25         H  0.87449220  0.07814421  0.46665213     0.15500
H26         H  0.93229018  0.13303827  0.46690393     0.15500
H27         H  0.07310194  0.87132533  0.46192240     0.15500
H28         H  0.13078008  0.92631634  0.46541857     0.15500
H29         H  0.86894765  0.92953441  0.53569796     0.13800
H30         H  0.92371234  0.87215769  0.53541614     0.13800
H31         H  0.07979293  0.12970631  0.54519628     0.13800
H32         H  0.13472809  0.07240975  0.54282894     0.13800
H33         H  0.97751513  0.02779977  0.52391621     0.27100
H34         H  0.02648824  0.97535929  0.52179921     0.27100
Zn35       Zn  0.03362587  0.47043781  0.53995881     1.49700
Zn36       Zn  0.96823822  0.46333439  0.46992962     1.49400
Zn37       Zn  0.96465304  0.53756061  0.53473400     1.49100
Zn38       Zn  0.03192986  0.53534581  0.46771156     1.49500
O39         O  0.99949769  0.50154243  0.50328684    -1.83200
O40         O  0.02804575  0.40954357  0.53050567    -0.73900
O41         O  0.90919165  0.47148643  0.47975544    -0.73700
O42         O  0.97183554  0.52899700  0.59528022    -0.73200
O43         O  0.98018372  0.40542108  0.48338688    -0.73900
O44         O  0.02091702  0.48333785  0.59853030    -0.73500
O45         O  0.90743610  0.52552740  0.52049645    -0.74100
O46         O  0.02557940  0.59500884  0.47932183    -0.73400
O47         O  0.97889519  0.47139546  0.41010428    -0.74200
O48         O  0.97432923  0.59684892  0.52235272    -0.73600
O49         O  0.01869773  0.52554149  0.40908384    -0.74100
O50         O  0.09002124  0.52267249  0.47518969    -0.74000
O51         O  0.09132757  0.48491495  0.53050773    -0.73800
C52         C  0.00484386  0.38877311  0.50750561     0.78000
C53         C  0.88989336  0.49823036  0.49953365     0.78500
C54         C  0.99566636  0.50682892  0.61561991     0.77500
C55         C  0.00037362  0.61466909  0.50063073     0.77900
C56         C  0.99857871  0.49808555  0.39084005     0.79000
C57         C  0.10906964  0.50414959  0.50264551     0.78000
Zn58       Zn  0.53758779  0.96943107  0.46444585     1.49700
Zn59       Zn  0.46833244  0.03617422  0.46428508     1.49400
Zn60       Zn  0.46657307  0.96926482  0.53157069     1.49100
Zn61       Zn  0.53751939  0.03470934  0.53484802     1.49500
O62         O  0.50244917  0.00252609  0.49875527    -1.83200
O63         O  0.52781187  0.97954290  0.40532846    -0.73900
O64         O  0.40808040  0.02768086  0.47428234    -0.73700
O65         O  0.47706944  0.91107157  0.51961893    -0.73200
O66         O  0.47923282  0.02568691  0.40467498    -0.73900
O67         O  0.52673874  0.91107432  0.47438113    -0.73500
O68         O  0.40741968  0.97954361  0.52034894    -0.74100
O69         O  0.52673799  0.02276550  0.59371206    -0.73400
O70         O  0.48107119  0.09401752  0.47673011    -0.74200
O71         O  0.47603254  0.97865555  0.59127917    -0.73600
O72         O  0.52711951  0.09323289  0.52608015    -0.74100
O73         O  0.59708602  0.02605819  0.52397847    -0.74000
O74         O  0.59683195  0.97967331  0.47512084    -0.73800
C75         C  0.50379358  0.00245624  0.38621335     0.78000
C76         C  0.38887323  0.00380703  0.49730851     0.78500
C77         C  0.50176006  0.89258453  0.49671614     0.77500
C78         C  0.50108983  0.00029951  0.61125886     0.77900
C79         C  0.50433467  0.11208545  0.50176204     0.79000
C80         C  0.61577149  0.00314205  0.49932266     0.78000
N81         N  0.50588999  0.95474426  0.04252394    -0.35700
N82         N  0.50239920  0.95429523  0.95391284    -0.56300
N83         N  0.50594717  0.04237773  0.95473047    -0.35700
N84         N  0.50081126  0.04294367  0.04311335    -0.56300
C85         C  0.49966048  0.91486897  0.03514716     0.27900
C86         C  0.49846456  0.96163647  0.08224823     0.27900
C87         C  0.49835866  0.03520776  0.91504280     0.27900
C88         C  0.49856456  0.08198742  0.96196557     0.27900
C89         C  0.50844018  0.91442473  0.96003806     0.36500
C90         C  0.50778466  0.96046395  0.91392684     0.36500
C91         C  0.50548459  0.03691780  0.08326190     0.36500
C92         C  0.50650549  0.08294594  0.03707500     0.36500
C93         C  0.48880462  0.89613665  0.07078038    -0.21000
C94         C  0.48804303  0.92554901  0.10039656    -0.21000
C95         C  0.48629960  0.07074940  0.89689080    -0.21000
C96         C  0.48643266  0.10017991  0.92640422    -0.21000
C97         C  0.51751578  0.89527568  0.92375219    -0.22000
C98         C  0.51702004  0.92436795  0.89459879    -0.22000
C99         C  0.51377212  0.07332622  0.10270159    -0.22000
C100        C  0.51438397  0.10237283  0.07355169    -0.22000
C101        C  0.50421773  0.89454887  0.99748173    -0.17400
C102        C  0.50162712  0.99927494  0.10295509    -0.17400
C103        C  0.50353271  0.10260627  0.99940352    -0.17400
C104        C  0.50332855  0.99791332  0.89427065    -0.17400
H105        H  0.48177674  0.86454408  0.07504805     0.15500
H106        H  0.48030092  0.92084075  0.13171453     0.15500
H107        H  0.47796166  0.07510082  0.86561742     0.15500
H108        H  0.47809701  0.13140152  0.92209414     0.15500
H109        H  0.52397860  0.86361683  0.91872831     0.13800
H110        H  0.52301874  0.91946769  0.86282391     0.13800
H111        H  0.51941450  0.07853078  0.13453415     0.13800
H112        H  0.52038136  0.13414642  0.07871415     0.13800
H113        H  0.51797106  0.97525029  0.02245713     0.27100
H114        H  0.51935128  0.02254057  0.97470757     0.27100
N115        N  0.95626701  0.50133156  0.04894340    -0.35700
N116        N  0.95343064  0.50098860  0.96036666    -0.56300
N117        N  0.04115451  0.50403818  0.95823675    -0.35700
N118        N  0.04388175  0.49845500  0.04664925    -0.56300
C119        C  0.91655970  0.49369642  0.04230638     0.27900
C120        C  0.96448923  0.49192038  0.08786161     0.27900
C121        C  0.03240832  0.49597312  0.91887246     0.27900
C122        C  0.08023000  0.49363203  0.96446853     0.27900
C123        C  0.91422650  0.50882574  0.96871947     0.36500
C124        C  0.95884646  0.51002383  0.92094646     0.36500
C125        C  0.03887782  0.50370369  0.08696103     0.36500
C126        C  0.08369392  0.50387150  0.03921261     0.36500
C127        C  0.89932713  0.47928975  0.07743908    -0.21000
C128        C  0.92938957  0.47850899  0.10621596    -0.21000
C129        C  0.06628938  0.48031456  0.89999033    -0.21000
C130        C  0.09632481  0.47868937  0.92870326    -0.21000
C131        C  0.89479144  0.52295715  0.93455869    -0.22000
C132        C  0.92304350  0.52395037  0.90443784    -0.22000
C133        C  0.07583065  0.51184576  0.10518659    -0.22000
C134        C  0.10402206  0.51241941  0.07501027    -0.22000
C135        C  0.89508240  0.50151520  0.00608072    -0.17400
C136        C  0.00203500  0.49801051  0.10784859    -0.17400
C137        C  0.10232151  0.49881996  0.00101993    -0.17400
C138        C  0.99510002  0.50361461  0.89923297    -0.17400
H139        H  0.86820348  0.47053012  0.08210984     0.15500
H140        H  0.92545936  0.46935278  0.13718636     0.15500
H141        H  0.06906630  0.47057582  0.86883264     0.15500
H142        H  0.12655171  0.46740798  0.92373757     0.15500
H143        H  0.86353647  0.53196152  0.93163395     0.13800
H144        H  0.91768271  0.53406304  0.87395205     0.13800
H145        H  0.08227402  0.51632150  0.13694832     0.13800
H146        H  0.13591716  0.51822120  0.07929399     0.13800
H147        H  0.97541089  0.51641242  0.02939844     0.27100
H148        H  0.02289999  0.51962354  0.97853973     0.27100
Zn149      Zn  0.53323422  0.46365069  0.96623600     1.49700
Zn150      Zn  0.46345835  0.53334649  0.96728040     1.49400
Zn151      Zn  0.46426595  0.46365559  0.03223287     1.49100
Zn152      Zn  0.53387968  0.53303238  0.03297855     1.49500
O153        O  0.49870115  0.49848990  0.99958300    -1.83200
O154        O  0.52101588  0.47425942  0.90833525    -0.73900
O155        O  0.40397482  0.52238719  0.97721366    -0.73700
O156        O  0.47369380  0.40438891  0.02075511    -0.73200
O157        O  0.47391684  0.52231256  0.90868339    -0.73900
O158        O  0.52309200  0.40410234  0.97563880    -0.73500
O159        O  0.40487672  0.47468625  0.02377997    -0.74100
O160        O  0.52342466  0.52196047  0.09108998    -0.73400
O161        O  0.47392970  0.59297839  0.97850100    -0.74200
O162        O  0.47667843  0.47336777  0.09037521    -0.73600
O163        O  0.52400598  0.59241620  0.02334341    -0.74100
O164        O  0.59319371  0.52225987  0.02331100    -0.74000
O165        O  0.59293275  0.47429436  0.97594617    -0.73800
C166        C  0.49717013  0.49799657  0.89002978     0.78000
C167        C  0.38561400  0.49844995  0.00076066     0.78500
C168        C  0.49823780  0.38543525  0.99798925     0.77500
C169        C  0.50044688  0.49729515  0.10918674     0.77900
C170        C  0.49919723  0.61151699  0.00118751     0.79000
C171        C  0.61189229  0.49824187  0.99973790     0.78000
Zn172      Zn  0.53272181  0.46827338  0.53325930     1.49700
Zn173      Zn  0.53405612  0.53649155  0.46750858     1.49400
Zn174      Zn  0.46587401  0.46861722  0.46406191     1.49100
Zn175      Zn  0.46456049  0.53521960  0.53313855     1.49500
O176        O  0.49929352  0.50211494  0.49940552    -1.83200
O177        O  0.59119511  0.47416171  0.52029779    -0.73900
O178        O  0.52630384  0.52562644  0.40847645    -0.73700
O179        O  0.47310552  0.41002548  0.47645583    -0.73200
O180        O  0.59231083  0.52682000  0.47929469    -0.73900
O181        O  0.51988430  0.41046173  0.52480485    -0.73500
O182        O  0.48056257  0.47633438  0.40652770    -0.74100
O183        O  0.40666947  0.52242061  0.52360150    -0.73400
O184        O  0.52273151  0.59454801  0.47816714    -0.74200
O185        O  0.40715675  0.48191377  0.46960266    -0.73600
O186        O  0.47242150  0.59386790  0.52244138    -0.74100
O187        O  0.47533107  0.52673279  0.59136592    -0.74000
O188        O  0.52407190  0.48071795  0.59186221    -0.73800
C189        C  0.61023509  0.49966758  0.49924080     0.78000
C190        C  0.50451581  0.50039371  0.38900107     0.78500
C191        C  0.49595149  0.39174278  0.50116688     0.77500
C192        C  0.38842289  0.50240882  0.49618455     0.77900
C193        C  0.49718565  0.61273095  0.50026534     0.79000
C194        C  0.49972376  0.50412876  0.61016078     0.78000
C195        C  0.51109503  0.48731448  0.71306611     0.30700
C196        C  0.52644217  0.46865839  0.74748959    -0.35700
C197        C  0.51110163  0.48268413  0.78426990     0.16700
C198        C  0.48249954  0.51285359  0.78705620     0.22500
C199        C  0.46686166  0.53129609  0.75257081    -0.33800
C200        C  0.48238844  0.51739901  0.71575392     0.16600
O201        O  0.52144833  0.47911410  0.67561701    -0.25800
C202        C  0.49909945  0.50426112  0.65412326     0.06300
C203        C  0.47419679  0.52883425  0.67738936    -0.30700
O204        O  0.47340005  0.52200975  0.82466721    -0.22500
C205        C  0.49654126  0.49740180  0.84603922    -0.02500
C206        C  0.52047628  0.47213311  0.82257357    -0.16900
H207        H  0.54905144  0.44517937  0.74573342     0.21000
H208        H  0.44457813  0.55508374  0.75434767     0.19400
H209        H  0.45297594  0.55147734  0.66742677     0.19400
H210        H  0.54212064  0.44981773  0.83237012     0.15200
C211        C  0.49288296  0.48254359  0.28592657     0.30700
C212        C  0.47595755  0.46474946  0.25129871    -0.35700
C213        C  0.48938286  0.48014918  0.21461218     0.16700
C214        C  0.51761563  0.51080767  0.21214317     0.22500
C215        C  0.53469412  0.52847863  0.24678693    -0.33800
C216        C  0.52116313  0.51316472  0.28351142     0.16600
O217        O  0.48376045  0.47370427  0.32335470    -0.25800
C218        C  0.50646664  0.49897549  0.34509636     0.06300
C219        C  0.53048280  0.52418479  0.32202886    -0.30700
O220        O  0.52529417  0.52089238  0.17468974    -0.22500
C221        C  0.50163419  0.49640004  0.15307743    -0.02500
C222        C  0.47862722  0.47035324  0.17620429    -0.16900
H223        H  0.45354071  0.44097308  0.25287325     0.21000
H224        H  0.55658124  0.55274074  0.24521618     0.19400
H225        H  0.55110418  0.54764053  0.33217159     0.19400
H226        H  0.45705707  0.44772459  0.16615144     0.15200
C227        C  0.79068633  0.48757490  0.98941876     0.30700
C228        C  0.75610824  0.47167535  0.97032124    -0.35700
C229        C  0.71887754  0.48507190  0.98539729     0.16700
C230        C  0.71583559  0.51252575  0.01687886     0.22500
C231        C  0.75045312  0.52850078  0.03594398    -0.33800
C232        C  0.78770948  0.51481148  0.02109142     0.16600
O233        O  0.82846644  0.47907781  0.98024252    -0.25800
C234        C  0.85011505  0.50087422  0.00657978     0.06300
C235        C  0.82630665  0.52382751  0.03267574    -0.30700
O236        O  0.67797012  0.52084769  0.02606123    -0.22500
C237        C  0.65644346  0.49833394  0.00020425    -0.02500
C238        C  0.68034599  0.47541018  0.97422286    -0.16900
H239        H  0.75810174  0.45020751  0.94553880     0.21000
H240        H  0.74847116  0.54994573  0.06074640     0.19400
H241        H  0.83611813  0.54443506  0.05636002     0.19400
H242        H  0.67070241  0.45470826  0.95054778     0.15200
C243        C  0.20726745  0.48514639  0.01478089     0.30700
C244        C  0.24240417  0.47068492  0.03349453    -0.35700
C245        C  0.27915646  0.48415439  0.01742557     0.16700
C246        C  0.28125896  0.51011086  0.98518546     0.22500
C247        C  0.24610120  0.52458092  0.96648788    -0.33800
C248        C  0.20934869  0.51112537  0.98258428     0.16600
O249        O  0.16974404  0.47687499  0.02521108    -0.25800
C250        C  0.14734700  0.49786583  0.99939661     0.06300
C251        C  0.17050540  0.51979929  0.97223287    -0.30700
O252        O  0.31881875  0.51882713  0.97513625    -0.22500
C253        C  0.34109334  0.49808802  0.00122189    -0.02500
C254        C  0.31799133  0.47600152  0.02825228    -0.16900
H255        H  0.24117330  0.45045816  0.05890198     0.21000
H256        H  0.24731171  0.54501707  0.94124977     0.19400
H257        H  0.16012404  0.53972039  0.94870544     0.19400
H258        H  0.32835219  0.45674174  0.05234089     0.15200
C259        C  0.48465879  0.71584188  0.98900624     0.30700
C260        C  0.46615306  0.75091595  0.97438311    -0.35700
C261        C  0.48422479  0.78771554  0.98590302     0.16700
C262        C  0.51805185  0.78992444  0.01033022     0.22500
C263        C  0.53655465  0.75486707  0.02493208    -0.33800
C264        C  0.51854109  0.71807702  0.01334084     0.16600
O265        O  0.47314767  0.67824258  0.98162287    -0.25800
C266        C  0.49996457  0.65607222  0.00157711     0.06300
C267        C  0.52885992  0.67930203  0.02189455    -0.30700
O268        O  0.52969973  0.82747687  0.01761146    -0.22500
C269        C  0.50319372  0.84963748  0.99727809    -0.02500
C270        C  0.47415348  0.82650224  0.97707754    -0.16900
H271        H  0.43959358  0.74960551  0.95525680     0.21000
H272        H  0.56317122  0.75617845  0.04397892     0.19400
H273        H  0.55404919  0.66905052  0.03997113     0.19400
H274        H  0.44914360  0.83690517  0.95885017     0.15200
C275        C  0.48737531  0.20716235  0.01159687     0.30700
C276        C  0.46835193  0.24206195  0.02642141    -0.35700
C277        C  0.48320647  0.27889002  0.01205939     0.16700
C278        C  0.51462016  0.28132154  0.98491820     0.22500
C279        C  0.53363259  0.24637357  0.97001006    -0.33800
C280        C  0.51878541  0.20950530  0.98443386     0.16600
O281        O  0.47814110  0.16962364  0.02084686    -0.25800
C282        C  0.50386954  0.14752347  0.99922881     0.06300
C283        C  0.53000842  0.17076083  0.97613099    -0.30700
O284        O  0.52391357  0.31897916  0.97599797    -0.22500
C285        C  0.49811771  0.34093426  0.99775909    -0.02500
C286        C  0.47204490  0.31754521  0.02069280    -0.16900
H287        H  0.44370999  0.24060374  0.04773285     0.21000
H288        H  0.55832052  0.24782551  0.94875010     0.19400
H289        H  0.55353894  0.16045178  0.95593658     0.19400
H290        H  0.44857458  0.32761619  0.04107912     0.15200
C291        C  0.51380818  0.71541622  0.48714444     0.30700
C292        C  0.53370240  0.74957695  0.47266303    -0.35700
C293        C  0.51716889  0.78665453  0.48427126     0.16700
C294        C  0.48346167  0.78989303  0.50852737     0.22500
C295        C  0.46349951  0.75570124  0.52295559    -0.33800
C296        C  0.48005198  0.71859144  0.51134478     0.16600
O297        O  0.52414543  0.67777668  0.48006746    -0.25800
C298        C  0.49672828  0.65665582  0.50002655     0.06300
C299        C  0.46850285  0.68033505  0.52011726    -0.30700
O300        O  0.47355288  0.82760498  0.51603441    -0.22500
C301        C  0.50119450  0.84862975  0.49623219    -0.02500
C302        C  0.52908570  0.82483782  0.47584407    -0.16900
H303        H  0.56023713  0.74738368  0.45379058     0.21000
H304        H  0.43708634  0.75789494  0.54199632     0.19400
H305        H  0.44326010  0.67073658  0.53837387     0.19400
H306        H  0.55455141  0.83432704  0.45783683     0.15200
C307        C  0.48744483  0.21462014  0.48917756     0.30700
C308        C  0.46831635  0.24849728  0.47334372    -0.35700
C309        C  0.48220188  0.28570882  0.48794224     0.16700
C310        C  0.51286225  0.28938438  0.51615469     0.22500
C311        C  0.53207870  0.25543062  0.53204748    -0.33800
C312        C  0.51808502  0.21811231  0.51745334     0.16600
O313        O  0.47895172  0.17694827  0.47984956    -0.25800
C314        C  0.50433650  0.15601915  0.50247152     0.06300
C315        C  0.52954773  0.17990510  0.52650125    -0.30700
O316        O  0.52129884  0.32725097  0.52500409    -0.22500
C317        C  0.49569569  0.34784319  0.50214780    -0.02500
C318        C  0.47060037  0.32366272  0.47849703    -0.16900
H319        H  0.44430930  0.24598984  0.45117487     0.21000
H320        H  0.55618687  0.25794432  0.55410897     0.19400
H321        H  0.55265093  0.17047390  0.54757423     0.19400
H322        H  0.44765841  0.33275935  0.45710187     0.15200
C323        C  0.48684567  0.98616500  0.78938790     0.30700
C324        C  0.46770242  0.97191093  0.75402825    -0.35700
C325        C  0.48390968  0.98545233  0.71742570     0.16700
C326        C  0.51665997  0.01125003  0.71572829     0.22500
C327        C  0.53567253  0.02558750  0.75103126    -0.33800
C328        C  0.51947491  0.01210268  0.78757438     0.16600
O329        O  0.47687413  0.97737000  0.82687616    -0.25800
C330        C  0.50334142  0.99818156  0.84932561     0.06300
C331        C  0.53057670  0.02025349  0.82644334    -0.30700
O332        O  0.52697375  0.01992719  0.67836562    -0.22500
C333        C  0.50052657  0.99941055  0.65572118    -0.02500
C334        C  0.47296686  0.97743775  0.67840819    -0.16900
H335        H  0.44202716  0.95165168  0.75497999     0.21000
H336        H  0.56135397  0.04583823  0.75007233     0.19400
H337        H  0.55495192  0.03950652  0.83706131     0.19400
H338        H  0.44851430  0.95833811  0.66767702     0.15200
C339        C  0.51670908  0.98701052  0.20774990     0.30700
C340        C  0.53598454  0.97312531  0.24280986    -0.35700
C341        C  0.52017934  0.98711997  0.27967843     0.16700
C342        C  0.48763848  0.01297760  0.28194500     0.22500
C343        C  0.46833985  0.02678495  0.24691224    -0.33800
C344        C  0.48415499  0.01283885  0.21006188     0.16600
O345        O  0.52685903  0.97834081  0.17010851    -0.25800
C346        C  0.50062705  0.99911686  0.14796893     0.06300
C347        C  0.47315001  0.02086190  0.17129322    -0.30700
O348        O  0.47775251  0.02212979  0.31952817    -0.22500
C349        C  0.50423977  0.00179454  0.34170196    -0.02500
C350        C  0.53141621  0.97953925  0.31849130    -0.16900
H351        H  0.56160811  0.95295509  0.24143910     0.21000
H352        H  0.44283757  0.04710529  0.24828771     0.19400
H353        H  0.44897704  0.04018482  0.16104204     0.19400
H354        H  0.55574048  0.96040946  0.32876888     0.15200
C355        C  0.71356311  0.51735554  0.49581997     0.30700
C356        C  0.74860878  0.54088319  0.49580912    -0.35700
C357        C  0.78486601  0.51956008  0.49666369     0.16700
C358        C  0.78671330  0.47788942  0.49647113     0.22500
C359        C  0.75155337  0.45426610  0.49702314    -0.33800
C360        C  0.71515602  0.47570024  0.49717895     0.16600
O361        O  0.67644749  0.53117623  0.49576838    -0.25800
C362        C  0.65404818  0.49803948  0.49795687     0.06300
C363        C  0.67630212  0.46258196  0.49903360    -0.30700
O364        O  0.82410747  0.46449832  0.49676913    -0.22500
C365        C  0.84606464  0.49814005  0.49790219    -0.02500
C366        C  0.82339204  0.53321463  0.49811268    -0.16900
H367        H  0.74765721  0.57354158  0.49567456     0.21000
H368        H  0.75251164  0.42162508  0.49779785     0.19400
H369        H  0.66537351  0.43181054  0.50064503     0.19400
H370        H  0.83389308  0.56419909  0.49891723     0.15200
C371        C  0.28590363  0.50529366  0.51730297     0.30700
C372        C  0.25178734  0.50561446  0.54198069    -0.35700
C373        C  0.21472332  0.50558823  0.52179125     0.16700
C374        C  0.21140569  0.50636274  0.48020208     0.22500
C375        C  0.24557437  0.50562603  0.45546055    -0.33800
C376        C  0.28270911  0.50450349  0.47568226     0.16600
O377        O  0.32352993  0.50486321  0.52985374    -0.25800
C378        C  0.34458572  0.50294233  0.49590185     0.06300
C379        C  0.32097283  0.50241883  0.46118001    -0.30700
O380        O  0.17364022  0.50655782  0.46787910    -0.22500
C381        C  0.15283499  0.50508234  0.50202274    -0.02500
C382        C  0.17663813  0.50430642  0.53650498    -0.17300
H383        H  0.25400239  0.50534214  0.57459271     0.21000
H384        H  0.24333725  0.50535457  0.42284499     0.19400
H385        H  0.33066187  0.50138396  0.43000825     0.19400
H386        H  0.16717468  0.50319345  0.56772639     0.15200
C387        C  0.01041162  0.51658458  0.79430470     0.30700
C388        C  0.03003338  0.53052235  0.75954261    -0.35700
C389        C  0.01224395  0.51969896  0.72235519     0.16700
C390        C  0.97730994  0.49698019  0.71947857     0.22500
C391        C  0.95784495  0.48281010  0.75424761    -0.33800
C392        C  0.97582171  0.49341679  0.79143011     0.16600
O393        O  0.02181733  0.52315019  0.83212100    -0.25800
C394        C  0.99412309  0.50402739  0.85399242     0.06300
C395        C  0.96504369  0.48459974  0.83005682    -0.30700
O396        O  0.96616708  0.49011258  0.68162018    -0.22500
C397        C  0.99447304  0.50852461  0.66002205    -0.02500
C398        C  0.02394774  0.52727210  0.68371180    -0.16900
H399        H  0.05740339  0.54840260  0.76135307     0.21000
H400        H  0.93069151  0.46460012  0.75243861     0.19400
H401        H  0.93961956  0.46659157  0.83977420     0.19400
H402        H  0.05035184  0.54370193  0.67380647     0.15200
C403        C  0.00727258  0.51580736  0.28697526     0.30700
C404        C  0.01561945  0.53823808  0.25225208    -0.35700
C405        C  0.00941498  0.51820206  0.21516845     0.16700
C406        C  0.99641888  0.47864249  0.21237142     0.22500
C407        C  0.98802695  0.45622359  0.24712672    -0.33800
C408        C  0.99363922  0.47645214  0.28421730     0.16600
O409        O  0.01071715  0.52864138  0.32469464    -0.25800
C410        C  0.99867654  0.49725972  0.34640484     0.06300
C411        C  0.98760608  0.46397655  0.32282427    -0.30700
O412        O  0.99236246  0.46604278  0.17458740    -0.22500
C413        C  0.00277843  0.49800235  0.15284515    -0.02500
C414        C  0.01347097  0.53135034  0.17657380    -0.16900
H415        H  0.02586729  0.56926788  0.25401766     0.21000
H416        H  0.97742926  0.42531332  0.24536289     0.19400
H417        H  0.97717517  0.43473350  0.33274603     0.19400
H418        H  0.02265505  0.56101290  0.16667705     0.15200
C419        C  0.28494037  0.98776985  0.51226918     0.30700
C420        C  0.25053042  0.96853604  0.52779261    -0.35700
C421        C  0.21308579  0.98431856  0.51584246     0.16700
C422        C  0.20971571  0.01715108  0.49079197     0.22500
C423        C  0.24412708  0.03641134  0.47528657    -0.33800
C424        C  0.28158553  0.02029347  0.48681703     0.16600
O425        O  0.32287774  0.97773491  0.51921515    -0.25800
C426        C  0.34423934  0.00401495  0.49779102     0.06300
C427        C  0.32008257  0.03119295  0.47693906    -0.30700
O428        O  0.17176522  0.02690413  0.48354288    -0.22500
C429        C  0.15045634  0.99966326  0.50380491    -0.02500
C430        C  0.17462555  0.97247644  0.52458202    -0.16900
H431        H  0.25279949  0.94283489  0.54755480     0.21000
H432        H  0.24183886  0.06198754  0.45536605     0.19400
H433        H  0.32953317  0.05550749  0.45752844     0.19400
H434        H  0.16513529  0.94780078  0.54351330     0.15200
C435        C  0.79420374  0.98948131  0.48932144     0.30700
C436        C  0.75929290  0.97090166  0.47361588    -0.35700
C437        C  0.72238908  0.98761760  0.48587666     0.16700
C438        C  0.71988936  0.02024950  0.51201481     0.22500
C439        C  0.75485252  0.03906708  0.52749033    -0.33800
C440        C  0.79181628  0.02245155  0.51504099     0.16600
O441        O  0.83178662  0.97855343  0.48205893    -0.25800
C442        C  0.85392499  0.00506874  0.50309614     0.06300
C443        C  0.83061348  0.03306528  0.52428588    -0.30700
O444        O  0.68217716  0.03023205  0.52018147    -0.22500
C445        C  0.66026912  0.00373378  0.49883417    -0.02500
C446        C  0.68372550  0.97664299  0.47677341    -0.16900
H447        H  0.76079881  0.94507236  0.45338015     0.21000
H448        H  0.75334252  0.06471461  0.54795662     0.19400
H449        H  0.84086819  0.05745987  0.54381551     0.19400
H450        H  0.67369948  0.95206377  0.45735149     0.15200
C451        C  0.01849243  0.79297612  0.50471593     0.30700
C452        C  0.04112957  0.75817997  0.51293016    -0.35700
C453        C  0.02165827  0.72109053  0.50545322     0.16700
C454        C  0.98235335  0.71845060  0.49158057     0.22500
C455        C  0.96014239  0.75322625  0.48239212    -0.33800
C456        C  0.97986459  0.79024872  0.48925786     0.16600
O457        O  0.03030876  0.83071654  0.51041768    -0.25800
C458        C  0.99899383  0.85270686  0.49812272     0.06300
C459        C  0.96704490  0.82883898  0.48391366    -0.30700
O460        O  0.96945897  0.68078858  0.48844626    -0.22500
C461        C  0.00115015  0.65900277  0.49977747    -0.02500
C462        C  0.03460641  0.68238323  0.51031575    -0.16900
H463        H  0.07165737  0.75990604  0.52463226     0.21000
H464        H  0.92948507  0.75154753  0.47103054     0.19400
H465        H  0.93839630  0.83842542  0.47151388     0.19400
H466        H  0.06383022  0.67228309  0.52083536     0.15200
C467        C  0.02488125  0.28481801  0.50186465     0.30700
C468        C  0.04697912  0.24973060  0.49277713    -0.35700
C469        C  0.02672668  0.21289679  0.49847009     0.16700
C470        C  0.98773493  0.21065397  0.51272468     0.22500
C471        C  0.96537690  0.24567529  0.52102898    -0.33800
C472        C  0.98535592  0.28248978  0.51478019     0.16600
O473        O  0.03764596  0.32249967  0.49856745    -0.25800
C474        C  0.00565281  0.34445224  0.50905887     0.06300
C475        C  0.97224199  0.32120548  0.51909836    -0.30700
O476        O  0.97515284  0.17311190  0.51700808    -0.22500
C477        C  0.00634829  0.15069582  0.50506841    -0.02500
C478        C  0.03902629  0.17410349  0.49249971    -0.16900
H479        H  0.07775875  0.25104097  0.48198262     0.21000
H480        H  0.93451992  0.24431881  0.53159661     0.19400
H481        H  0.94259115  0.33145892  0.52817292     0.19400
H482        H  0.06777012  0.16407345  0.48069126     0.15200
loop_ 
_geom_bond_atom_site_label_1 
_geom_bond_atom_site_label_2 
_geom_bond_distance 
_geom_bond_site_symmetry_2 
_ccdc_geom_bond_type 
N1            C6   1.355       .  A
N1            C5   1.353       .  A
N1           H33   1.042       .  S
N2            C9   1.353       .  A
N2           C10   1.354       .  A
N3            C8   1.355       .  A
N3            C7   1.355       .  A
N3           H34   1.041       .  S
N4           C11   1.353       .  A
N4           C12   1.352       .  A
C5           C13   1.386       .  A
C5           C21   1.414       .  A
C6           C22   1.418   1_655  A
C6           C14   1.388       .  A
C7           C15   1.389       .  A
C7           C24   1.419   1_455  A
C8           C23   1.416       .  A
C8           C16   1.385       .  A
C9           C21   1.413   1_565  A
C9           C17   1.384       .  A
C10          C24   1.420       .  A
C10          C18   1.388       .  A
C11          C19   1.387       .  A
C11          C22   1.416       .  A
C12          C20   1.384       .  A
C12          C23   1.410   1_545  A
C13          C14   1.377       .  A
C13          H25   1.082       .  S
C14          H26   1.082       .  S
C15          C16   1.378       .  A
C15          H27   1.082       .  S
C16          H28   1.082       .  S
C17          C18   1.373       .  A
C17          H29   1.082       .  S
C18          H30   1.081       .  S
C19          C20   1.372       .  A
C19          H31   1.081       .  S
C20          H32   1.082       .  S
C21         C442   1.489       .  S
C22         C477   1.497       .  S
C23         C429   1.489       .  S
C24         C458   1.498       .  S
Zn35         O39   1.959   1_455  S
Zn35         O40   2.045       .  S
Zn35         O44   2.028       .  S
Zn35         O51   1.995       .  S
Zn36         O39   1.961       .  S
Zn36         O41   2.002       .  S
Zn36         O43   2.014       .  S
Zn36         O47   2.034       .  S
Zn37         O39   1.957       .  S
Zn37         O42   2.041       .  S
Zn37         O45   1.989       .  S
Zn37         O48   2.035       .  S
Zn38         O39   1.956   1_455  S
Zn38         O46   2.021       .  S
Zn38         O49   2.011       .  S
Zn38         O50   1.985       .  S
O40          C52   1.274       .  A
O41          C53   1.271       .  A
O42          C54   1.275       .  A
O43          C52   1.271   1_655  A
O44          C54   1.274   1_455  A
O45          C53   1.271       .  A
O46          C55   1.271       .  A
O47          C56   1.275       .  A
O48          C55   1.273   1_655  A
O49          C56   1.272   1_455  A
O50          C57   1.269       .  A
O51          C57   1.272       .  A
C52         C474   1.470       .  S
C53         C365   1.452       .  S
C54         C397   1.472       .  S
C55         C461   1.469       .  S
C56         C410   1.472       .  S
C57         C381   1.450       .  S
Zn58         O62   1.959   1_565  S
Zn58         O63   2.015       .  S
Zn58         O67   1.996       .  S
Zn58         O74   2.019       .  S
Zn59         O62   1.962       .  S
Zn59         O64   2.043       .  S
Zn59         O66   2.035       .  S
Zn59         O70   1.999       .  S
Zn60         O62   1.958   1_565  S
Zn60         O65   1.995       .  S
Zn60         O68   2.023       .  S
Zn60         O71   2.021       .  S
Zn61         O62   1.966       .  S
Zn61         O69   2.026       .  S
Zn61         O72   1.994       .  S
Zn61         O73   2.027       .  S
O63          C75   1.273   1_565  A
O64          C76   1.275       .  A
O65          C77   1.271       .  A
O66          C75   1.275       .  A
O67          C77   1.272       .  A
O68          C76   1.272   1_565  A
O69          C78   1.274       .  A
O70          C79   1.273       .  A
O71          C78   1.273   1_565  A
O72          C79   1.272       .  A
O73          C80   1.272       .  A
O74          C80   1.272   1_565  A
C75         C349   1.474       .  S
C76         C426   1.478       .  S
C77         C301   1.456       .  S
C78         C333   1.473   1_545  S
C79         C314   1.455       .  S
C80         C445   1.474       .  S
N81          C86   1.356       .  A
N81          C85   1.356       .  A
N81         H113   1.036       .  S
N82          C89   1.354       .  A
N82          C90   1.355       .  A
N83          C88   1.354       .  A
N83          C87   1.355       .  A
N83         H114   1.037       .  S
N84          C91   1.355       .  A
N84          C92   1.355       .  A
C85          C93   1.388       .  A
C85         C101   1.420   1_554  A
C86         C102   1.420       .  A
C86          C94   1.387       .  A
C87          C95   1.387       .  A
C87         C104   1.418   1_545  A
C88         C103   1.418       .  A
C88          C96   1.388       .  A
C89         C101   1.418       .  A
C89          C97   1.387       .  A
C90         C104   1.415       .  A
C90          C98   1.385       .  A
C91          C99   1.387       .  A
C91         C102   1.419   1_545  A
C92         C100   1.386       .  A
C92         C103   1.417   1_554  A
C93          C94   1.375       .  A
C93         H105   1.082       .  S
C94         H106   1.082       .  S
C95          C96   1.373       .  A
C95         H107   1.082       .  S
C96         H108   1.082       .  S
C97          C98   1.372       .  A
C97         H109   1.082       .  S
C98         H110   1.082       .  S
C99         C100   1.371       .  A
C99         H111   1.082       .  S
C100        H112   1.082       .  S
C101        C269   1.488       .  S
C102        C346   1.491       .  S
C103        C282   1.488       .  S
C104        C330   1.489       .  S
N115        C120   1.356       .  A
N115        C119   1.355       .  A
N115        H147   1.039       .  S
N116        C123   1.354       .  A
N116        C124   1.355       .  A
N117        C122   1.356       .  A
N117        C121   1.358       .  A
N117        H148   1.040       .  S
N118        C125   1.355       .  A
N118        C126   1.354       .  A
C119        C127   1.387       .  A
C119        C135   1.419       .  A
C120        C136   1.419   1_655  A
C120        C128   1.388       .  A
C121        C129   1.386       .  A
C121        C138   1.419   1_455  A
C122        C137   1.420   1_556  A
C122        C130   1.388       .  A
C123        C135   1.415   1_556  A
C123        C131   1.386       .  A
C124        C138   1.417       .  A
C124        C132   1.386       .  A
C125        C133   1.387       .  A
C125        C136   1.418       .  A
C126        C134   1.387       .  A
C126        C137   1.418       .  A
C127        C128   1.376       .  A
C127        H139   1.082       .  S
C128        H140   1.081       .  S
C129        C130   1.375       .  A
C129        H141   1.082       .  S
C130        H142   1.082       .  S
C131        C132   1.371       .  A
C131        H143   1.082       .  S
C132        H144   1.082       .  S
C133        C134   1.370       .  A
C133        H145   1.081       .  S
C134        H146   1.081       .  S
C135        C234   1.489       .  S
C136        C413   1.490       .  S
C137        C250   1.492   1_554  S
C138        C394   1.499       .  S
Zn149       O153   1.962       .  S
Zn149       O154   1.994       .  S
Zn149       O158   2.028       .  S
Zn149       O165   2.031       .  S
Zn150       O153   1.966       .  S
Zn150       O155   2.030       .  S
Zn150       O157   2.002       .  S
Zn150       O161   2.034       .  S
Zn151       O153   1.957   1_554  S
Zn151       O156   2.021       .  S
Zn151       O159   2.020       .  S
Zn151       O162   1.990       .  S
Zn152       O153   1.960   1_554  S
Zn152       O160   1.995       .  S
Zn152       O163   2.024       .  S
Zn152       O164   2.023       .  S
O154        C166   1.273       .  A
O155        C167   1.273   1_556  A
O156        C168   1.273   1_554  A
O157        C166   1.273       .  A
O158        C168   1.273       .  A
O159        C167   1.273       .  A
O160        C169   1.271       .  A
O161        C170   1.274   1_556  A
O162        C169   1.272       .  A
O163        C170   1.274       .  A
O164        C171   1.272   1_554  A
O165        C171   1.274       .  A
C166        C205   1.457       .  S
C167        C253   1.474       .  S
C168        C285   1.474       .  S
C169        C221   1.455       .  S
C170        C266   1.476       .  S
C171        C237   1.475   1_556  S
Zn172       O176   1.940       .  S
Zn172       O177   1.994       .  S
Zn172       O181   1.977       .  S
Zn172       O188   2.002       .  S
Zn173       O176   1.941       .  S
Zn173       O178   1.999       .  S
Zn173       O180   1.994       .  S
Zn173       O184   1.988       .  S
Zn174       O176   1.944       .  S
Zn174       O179   2.003       .  S
Zn174       O182   1.988       .  S
Zn174       O185   2.003       .  S
Zn175       O176   1.940       .  S
Zn175       O183   1.985       .  S
Zn175       O186   1.995       .  S
Zn175       O187   1.983       .  S
O177        C189   1.269       .  A
O178        C190   1.271       .  A
O179        C191   1.272       .  A
O180        C189   1.269       .  A
O181        C191   1.268       .  A
O182        C190   1.269       .  A
O183        C192   1.268       .  A
O184        C193   1.270       .  A
O185        C192   1.271       .  A
O186        C193   1.270       .  A
O187        C194   1.269       .  A
O188        C194   1.271       .  A
C189        C362   1.453       .  S
C190        C218   1.456       .  S
C191        C317   1.455       .  S
C192        C378   1.452       .  S
C193        C298   1.455       .  S
C194        C202   1.456       .  S
C195        C200   1.382       .  A
C195        C196   1.398       .  A
C195        O201   1.314       .  A
C196        C197   1.397       .  A
C196        H207   1.082       .  S
C197        C206   1.355       .  A
C197        C198   1.381       .  A
C198        C199   1.400       .  A
C198        O204   1.315       .  A
C199        C200   1.399       .  A
C199        H208   1.082       .  S
C200        C203   1.357       .  A
O201        C202   1.327       .  A
C202        C203   1.390       .  A
C203        H209   1.083       .  S
O204        C205   1.329       .  A
C205        C206   1.388       .  A
C206        H210   1.083       .  S
C211        C216   1.382       .  A
C211        C212   1.398       .  A
C211        O217   1.313       .  A
C212        C213   1.397       .  A
C212        H223   1.082       .  S
C213        C222   1.355       .  A
C213        C214   1.382       .  A
C214        C215   1.399       .  A
C214        O220   1.314       .  A
C215        C216   1.398       .  A
C215        H224   1.082       .  S
C216        C219   1.357       .  A
O217        C218   1.328       .  A
C218        C219   1.389       .  A
C219        H225   1.083       .  S
O220        C221   1.328       .  A
C221        C222   1.388       .  A
C222        H226   1.083       .  S
C227        C232   1.380   1_556  A
C227        C228   1.404       .  A
C227        O233   1.319       .  A
C228        C229   1.403       .  A
C228        H239   1.082       .  S
C229        C238   1.363       .  A
C229        C230   1.380   1_556  A
C230        C231   1.406       .  A
C230        O236   1.320       .  A
C231        C232   1.404       .  A
C231        H240   1.082       .  S
C232        C235   1.364       .  A
O233        C234   1.332   1_556  A
C234        C235   1.393       .  A
C235        H241   1.082       .  S
O236        C237   1.332       .  A
C237        C238   1.392   1_554  A
C238        H242   1.082       .  S
C243        C248   1.380   1_554  A
C243        C244   1.404       .  A
C243        O249   1.320       .  A
C244        C245   1.404       .  A
C244        H255   1.082       .  S
C245        C254   1.362       .  A
C245        C246   1.380   1_554  A
C246        C247   1.405       .  A
C246        O252   1.321       .  A
C247        C248   1.404       .  A
C247        H256   1.082       .  S
C248        C251   1.362       .  A
O249        C250   1.333   1_554  A
C250        C251   1.394       .  A
C251        H257   1.082       .  S
O252        C253   1.332   1_556  A
C253        C254   1.392       .  A
C254        H258   1.082       .  S
C259        C264   1.380   1_556  A
C259        C260   1.405       .  A
C259        O265   1.321       .  A
C260        C261   1.405       .  A
C260        H271   1.082       .  S
C261        C270   1.363       .  A
C261        C262   1.380   1_556  A
C262        C263   1.404       .  A
C262        O268   1.321       .  A
C263        C264   1.404       .  A
C263        H272   1.082       .  S
C264        C267   1.363       .  A
O265        C266   1.332   1_556  A
C266        C267   1.393       .  A
C267        H273   1.082       .  S
O268        C269   1.332   1_554  A
C269        C270   1.392       .  A
C270        H274   1.082       .  S
C275        C280   1.380   1_554  A
C275        C276   1.403       .  A
C275        O281   1.319       .  A
C276        C277   1.403       .  A
C276        H287   1.082       .  S
C277        C286   1.361       .  A
C277        C278   1.380   1_554  A
C278        C279   1.405       .  A
C278        O284   1.321       .  A
C279        C280   1.404       .  A
C279        H288   1.082       .  S
C280        C283   1.363       .  A
O281        C282   1.331   1_554  A
C282        C283   1.393       .  A
C283        H289   1.082       .  S
O284        C285   1.332       .  A
C285        C286   1.392   1_556  A
C286        H290   1.082       .  S
C291        C296   1.382       .  A
C291        C292   1.398       .  A
C291        O297   1.313       .  A
C292        C293   1.397       .  A
C292        H303   1.082       .  S
C293        C302   1.356       .  A
C293        C294   1.381       .  A
C294        C295   1.399       .  A
C294        O300   1.314       .  A
C295        C296   1.398       .  A
C295        H304   1.082       .  S
C296        C299   1.357       .  A
O297        C298   1.327       .  A
C298        C299   1.389       .  A
C299        H305   1.083       .  S
O300        C301   1.328       .  A
C301        C302   1.388       .  A
C302        H306   1.083       .  S
C307        C312   1.382       .  A
C307        C308   1.397       .  A
C307        O313   1.312       .  A
C308        C309   1.395       .  A
C308        H319   1.082       .  S
C309        C318   1.355       .  A
C309        C310   1.381       .  A
C310        C311   1.401       .  A
C310        O316   1.314       .  A
C311        C312   1.399       .  A
C311        H320   1.082       .  S
C312        C315   1.359       .  A
O313        C314   1.326       .  A
C314        C315   1.390       .  A
C315        H321   1.083       .  S
O316        C317   1.329       .  A
C317        C318   1.386       .  A
C318        H322   1.083       .  S
C323        C328   1.380   1_565  A
C323        C324   1.406       .  A
C323        O329   1.321       .  A
C324        C325   1.405       .  A
C324        H335   1.082       .  S
C325        C334   1.364       .  A
C325        C326   1.380   1_565  A
C326        C327   1.403       .  A
C326        O332   1.320       .  A
C327        C328   1.403       .  A
C327        H336   1.082       .  S
C328        C331   1.361       .  A
O329        C330   1.333       .  A
C330        C331   1.391   1_565  A
C331        H337   1.082       .  S
O332        C333   1.331   1_545  A
C333        C334   1.393       .  A
C334        H338   1.082       .  S
C339        C344   1.380   1_565  A
C339        C340   1.405       .  A
C339        O345   1.321       .  A
C340        C341   1.405       .  A
C340        H351   1.082       .  S
C341        C350   1.363       .  A
C341        C342   1.380   1_565  A
C342        C343   1.404       .  A
C342        O348   1.321       .  A
C343        C344   1.404       .  A
C343        H352   1.082       .  S
C344        C347   1.363       .  A
O345        C346   1.333       .  A
C346        C347   1.393   1_565  A
C347        H353   1.082       .  S
O348        C349   1.331       .  A
C349        C350   1.393   1_545  A
C350        H354   1.083       .  S
C355        C360   1.382       .  A
C355        C356   1.396       .  A
C355        O361   1.313       .  A
C356        C357   1.395       .  A
C356        H367   1.082       .  S
C357        C366   1.353       .  A
C357        C358   1.382       .  A
C358        C359   1.401       .  A
C358        O364   1.317       .  A
C359        C360   1.401       .  A
C359        H368   1.082       .  S
C360        C363   1.359       .  A
O361        C362   1.326       .  A
C362        C363   1.389       .  A
C363        H369   1.083       .  S
O364        C365   1.329       .  A
C365        C366   1.385       .  A
C366        H370   1.083       .  S
C371        C376   1.382       .  A
C371        C372   1.397       .  A
C371        O377   1.312       .  A
C372        C373   1.395       .  A
C372        H383   1.082       .  S
C373        C382   1.354       .  A
C373        C374   1.382       .  A
C374        C375   1.400       .  A
C374        O380   1.314       .  A
C375        C376   1.399       .  A
C375        H384   1.082       .  S
C376        C379   1.358       .  A
O377        C378   1.326       .  A
C378        C379   1.388       .  A
C379        H385   1.082       .  S
O380        C381   1.328       .  A
C381        C382   1.386       .  A
C382        H386   1.083       .  S
C387        C392   1.379   1_455  A
C387        C388   1.406       .  A
C387        O393   1.322       .  A
C388        C389   1.406       .  A
C388        H399   1.082       .  S
C389        C398   1.364       .  A
C389        C390   1.380   1_455  A
C390        C391   1.406       .  A
C390        O396   1.323       .  A
C391        C392   1.406       .  A
C391        H400   1.082       .  S
C392        C395   1.364       .  A
O393        C394   1.334   1_455  A
C394        C395   1.396       .  A
C395        H401   1.082       .  S
O396        C397   1.332       .  A
C397        C398   1.390   1_655  A
C398        H402   1.082       .  S
C403        C408   1.380   1_455  A
C403        C404   1.404       .  A
C403        O409   1.319       .  A
C404        C405   1.404       .  A
C404        H415   1.082       .  S
C405        C414   1.362       .  A
C405        C406   1.380   1_455  A
C406        C407   1.405       .  A
C406        O412   1.321       .  A
C407        C408   1.404       .  A
C407        H416   1.082       .  S
C408        C411   1.363       .  A
O409        C410   1.332   1_455  A
C410        C411   1.391       .  A
C411        H417   1.082       .  S
O412        C413   1.332   1_655  A
C413        C414   1.393       .  A
C414        H418   1.082       .  S
C419        C424   1.380   1_565  A
C419        C420   1.406       .  A
C419        O425   1.320       .  A
C420        C421   1.404       .  A
C420        H431   1.082       .  S
C421        C430   1.364       .  A
C421        C422   1.380   1_565  A
C422        C423   1.406       .  A
C422        O428   1.320       .  A
C423        C424   1.405       .  A
C423        H432   1.082       .  S
C424        C427   1.366       .  A
O425        C426   1.333   1_565  A
C426        C427   1.393       .  A
C427        H433   1.082       .  S
O428        C429   1.333   1_545  A
C429        C430   1.392       .  A
C430        H434   1.082       .  S
C435        C440   1.380   1_565  A
C435        C436   1.403       .  A
C435        O441   1.319       .  A
C436        C437   1.403       .  A
C436        H447   1.082       .  S
C437        C446   1.362       .  A
C437        C438   1.380   1_565  A
C438        C439   1.405       .  A
C438        O444   1.321       .  A
C439        C440   1.405       .  A
C439        H448   1.082       .  S
C440        C443   1.364       .  A
O441        C442   1.331   1_565  A
C442        C443   1.394       .  A
C443        H449   1.082       .  S
O444        C445   1.332       .  A
C445        C446   1.392   1_545  A
C446        H450   1.082       .  S
C451        C456   1.378   1_455  A
C451        C452   1.405       .  A
C451        O457   1.320       .  A
C452        C453   1.405       .  A
C452        H463   1.082       .  S
C453        C462   1.364       .  A
C453        C454   1.381   1_455  A
C454        C455   1.404       .  A
C454        O460   1.320       .  A
C455        C456   1.404       .  A
C455        H464   1.082       .  S
C456        C459   1.361       .  A
O457        C458   1.334   1_455  A
C458        C459   1.396       .  A
C459        H465   1.082       .  S
O460        C461   1.331   1_655  A
C461        C462   1.391       .  A
C462        H466   1.082       .  S
C467        C472   1.381   1_455  A
C467        C468   1.406       .  A
C467        O473   1.322       .  A
C468        C469   1.405       .  A
C468        H479   1.082       .  S
C469        C478   1.362       .  A
C469        C470   1.379   1_455  A
C470        C471   1.403       .  A
C470        O476   1.320       .  A
C471        C472   1.403       .  A
C471        H480   1.082       .  S
C472        C475   1.361       .  A
O473        C474   1.332       .  A
C474        C475   1.390   1_455  A
C475        H481   1.082       .  S
O476        C477   1.333   1_655  A
C477        C478   1.397       .  A
C478        H482   1.082       .  S
