geometry optimzed in LAMMPS
_audit_creation_date              2020-12-01 
_audit_creation_method            'lammps2cif' 
_symmetry_space_group_name_H-M    'P1' 
_symmetry_Int_Tables_number       1 
_symmetry_cell_setting            triclinic 
loop_ 
_symmetry_equiv_pos_as_xyz 
  x,y,z 
_cell_length_a                    29.08923059 
_cell_length_b                    29.217984987488517 
_cell_length_c                    53.77084403111019 
_cell_angle_alpha                 89.93824888849656 
_cell_angle_beta                  90.20480024465027 
_cell_angle_gamma                 89.64240827541182 
loop_ 
_atom_site_label 
_atom_site_type_symbol 
_atom_site_fract_x 
_atom_site_fract_y 
_atom_site_fract_z 
_atom_site_charge 
O1          O  0.79908809  0.02268775  0.64270486    -0.74500
O2          O  0.66818166  0.00874546  0.65243405    -0.74500
O3          O  0.74145573  0.03269757  0.68132708    -0.74600
O4          O  0.72640156  0.00164549  0.61347377    -0.74600
O5          O  0.73470493  0.92740251  0.62184912    -0.74600
O6          O  0.75610723  0.95989611  0.69111433    -0.74600
O7          O  0.68040564  0.93588116  0.66285933    -0.74500
O8          O  0.80751107  0.94809926  0.65082537    -0.74600
Ni9        Ni  0.73310291  0.01901645  0.64717996     1.25400
Ni10       Ni  0.74460423  0.94011527  0.65705069     1.25400
C11         C  0.82453284  0.98700062  0.64571672     0.87700
C12         C  0.65283525  0.96929445  0.65888112     0.87600
C13         C  0.75505570  0.00263115  0.69698611     0.87600
C14         C  0.72928608  0.96023198  0.60606870     0.87800
O15         O  0.91444805  0.13803876  0.88248490    -0.74500
O16         O  0.92418252  0.26699846  0.86677079    -0.74500
O17         O  0.89860077  0.18960801  0.84179139    -0.74600
O18         O  0.93690933  0.21523897  0.90757876    -0.74600
O19         O  0.01056026  0.20772333  0.89706481    -0.74600
O20         O  0.97077554  0.17443453  0.83053763    -0.74600
O21         O  0.99609042  0.25455114  0.85427110    -0.74500
O22         O  0.98871769  0.12986231  0.87297312    -0.74600
Ni23       Ni  0.91592191  0.20301468  0.87497870     1.25400
Ni24       Ni  0.99415700  0.19157826  0.86319120     1.25400
C25         C  0.95068779  0.11304524  0.88008205     0.87700
C26         C  0.96289127  0.28210216  0.85880324     0.87600
C27         C  0.92731428  0.17443523  0.82586856     0.87600
C28         C  0.97943038  0.21581636  0.91346086     0.87800
O29         O  0.16868270  0.85284770  0.63761315    -0.74500
O30         O  0.29999950  0.86483377  0.64733073    -0.74500
O31         O  0.22667691  0.84370824  0.67638364    -0.74600
O32         O  0.24159815  0.87141913  0.60804416    -0.74600
O33         O  0.23532386  0.94604733  0.61595427    -0.74600
O34         O  0.21292172  0.91713758  0.68507763    -0.74600
O35         O  0.28863169  0.93813855  0.65706117    -0.74500
O36         O  0.16147499  0.92799311  0.64434165    -0.74600
Ni37       Ni  0.23478513  0.85552780  0.64205468     1.25400
Ni38       Ni  0.22457876  0.93499378  0.65094775     1.25400
C39         C  0.14385144  0.88914834  0.63972539     0.87700
C40         C  0.31575127  0.90427342  0.65350229     0.87600
C41         C  0.21412133  0.87480455  0.69162051     0.87600
C42         C  0.24067564  0.91286939  0.60049892     0.87800
O43         O  0.07805267  0.76567062  0.88217452    -0.74500
O44         O  0.06812555  0.63406111  0.87277871    -0.74500
O45         O  0.08653704  0.70754385  0.84352139    -0.74600
O46         O  0.06314209  0.69219209  0.91192707    -0.74600
O47         O  0.98766262  0.69828784  0.90552277    -0.74600
O48         O  0.01208274  0.71920081  0.83556638    -0.74600
O49         O  0.99367532  0.64432541  0.86459877    -0.74500
O50         O  0.00229916  0.77121926  0.87593222    -0.74600
Ni51       Ni  0.07664960  0.69940569  0.87787152     1.25400
Ni52       Ni  0.99622612  0.70818011  0.87013937     1.25400
C53         C  0.04105399  0.78978390  0.87994366     0.87700
C54         C  0.02832128  0.61776771  0.86730205     0.87600
C55         C  0.05431519  0.71863211  0.82851521     0.87600
C56         C  0.02223992  0.69327966  0.92032582     0.87800
O57         O  0.09923243  0.14566537  0.13133339    -0.74500
O58         O  0.08948097  0.27638672  0.14362731    -0.74500
O59         O  0.11003157  0.20015162  0.17143592    -0.74600
O60         O  0.08185313  0.22116367  0.10345010    -0.74600
O61         O  0.00683879  0.21672322  0.11127066    -0.74600
O62         O  0.03622122  0.18740548  0.17980027    -0.74600
O63         O  0.01597256  0.26612635  0.15346486    -0.74500
O64         O  0.02361510  0.14023374  0.13756707    -0.74600
Ni65       Ni  0.09787028  0.21132071  0.13723539     1.25400
Ni66       Ni  0.01803306  0.20266526  0.14593301     1.25400
C67         C  0.06218614  0.12190847  0.13234097     0.87700
C68         C  0.04998741  0.29276226  0.14988972     0.87600
C69         C  0.07878242  0.18712760  0.18644354     0.87600
C70         C  0.04020072  0.22194962  0.09591066     0.87800
O71         O  0.18048720  0.03552640  0.38201750    -0.74500
O72         O  0.31253027  0.02417228  0.37225193    -0.74500
O73         O  0.23855766  0.04986944  0.34386159    -0.74600
O74         O  0.25421367  0.01312039  0.41096980    -0.74600
O75         O  0.24768836  0.93967182  0.40062042    -0.74600
O76         O  0.22624569  0.97769776  0.33230766    -0.74600
O77         O  0.30183839  0.95217378  0.36013421    -0.74500
O78         O  0.17459019  0.96168432  0.37197688    -0.74600
Ni79       Ni  0.24698869  0.03329078  0.37768423     1.25400
Ni80       Ni  0.23766312  0.95521871  0.36584811     1.25400
C81         C  0.15608057  0.99977110  0.37774165     0.87700
C82         C  0.32874801  0.98540771  0.36482016     0.87600
C83         C  0.22656762  0.02083804  0.32739351     0.87600
C84         C  0.25308569  0.97097519  0.41719943     0.87800
O85         O  0.81322066  0.86428959  0.38401836    -0.74500
O86         O  0.68253699  0.87755410  0.37080220    -0.74500
O87         O  0.75932846  0.85876599  0.34328778    -0.74600
O88         O  0.73710519  0.88001875  0.41194259    -0.74600
O89         O  0.74369586  0.95518046  0.40617106    -0.74600
O90         O  0.77323480  0.93273987  0.33685643    -0.74600
O91         O  0.69414663  0.95153746  0.36327625    -0.74500
O92         O  0.82001742  0.93995097  0.37956480    -0.74600
Ni93       Ni  0.74747284  0.86745630  0.37768315     1.25400
Ni94       Ni  0.75770187  0.94751409  0.37116341     1.25400
C95         C  0.83768118  0.90080613  0.38387483     0.87700
C96         C  0.66690298  0.91764332  0.36530967     0.87600
C97         C  0.77325155  0.89101737  0.32917611     0.87600
C98         C  0.73759761  0.92065109  0.42067911     0.87800
O99         O  0.93077485  0.77818662  0.14104498    -0.74500
O100        O  0.94128445  0.64656756  0.15166906    -0.74500
O101        O  0.91856193  0.72142508  0.17996819    -0.74600
O102        O  0.94897745  0.70384380  0.11280114    -0.74600
O103        O  0.02387827  0.70843666  0.12092811    -0.74600
O104        O  0.99168099  0.73451618  0.18995835    -0.74600
O105        O  0.01437270  0.65666034  0.16261954    -0.74500
O106        O  0.00600026  0.78300121  0.14881713    -0.74600
Ni107      Ni  0.93227539  0.71198742  0.14613081     1.25400
Ni108      Ni  0.01169456  0.72049711  0.15602922     1.25400
C109        C  0.96766029  0.80191663  0.14362005     0.87700
C110        C  0.98083582  0.62999967  0.15797142     0.87600
C111        C  0.94858573  0.73490468  0.19558407     0.87600
C112        C  0.99043450  0.70375815  0.10534079     0.87800
C113        C  0.90368350  0.89103276  0.27012302    -0.17900
C114        C  0.93146695  0.86611117  0.25352207    -0.20100
C115        C  0.91779629  0.82284586  0.24484872     0.20600
C116        C  0.87500083  0.80531429  0.25259232    -0.03000
C117        C  0.84648993  0.83093154  0.26882070    -0.06100
C118        C  0.86121540  0.87362625  0.27808947     0.20800
C119        C  0.80376209  0.81307253  0.27631529     0.19000
C120        C  0.78936406  0.77052360  0.26722905    -0.17600
C121        C  0.81757306  0.74516929  0.25136220    -0.19800
C122        C  0.86054037  0.76205187  0.24414237     0.20500
C123        C  0.88842508  0.73689251  0.22791616    -0.32800
C124        C  0.93013425  0.75461713  0.21902017     0.01200
C125        C  0.94520029  0.79738755  0.22800961    -0.24100
C126        C  0.83434243  0.89670895  0.29609417    -0.28700
C127        C  0.79313102  0.87726665  0.30484560     0.06900
C128        C  0.77722486  0.83664349  0.29386524    -0.27400
H129        H  0.91566909  0.92375640  0.27693303     0.11600
H130        H  0.96391719  0.88050527  0.24766857     0.12700
H131        H  0.75661666  0.75639483  0.27279726     0.11800
H132        H  0.80578020  0.71222297  0.24475986     0.11000
H133        H  0.87609020  0.70447123  0.22078426     0.16400
H134        H  0.97649490  0.81208820  0.22071135     0.12300
H135        H  0.84729339  0.92761456  0.30468985     0.15200
H136        H  0.74562116  0.82141317  0.30048042     0.15000
C137        C  0.01107127  0.98974865  0.42367989    -0.17900
C138        C  0.96819181  0.96854710  0.42576712    -0.20100
C139        C  0.95005899  0.94320730  0.40587309     0.20600
C140        C  0.97498480  0.93974551  0.38350779    -0.03000
C141        C  0.01740999  0.96239540  0.38112324    -0.06100
C142        C  0.03612994  0.98676063  0.40148033     0.20800
C143        C  0.04154228  0.95982591  0.35850751     0.19000
C144        C  0.02331946  0.93497909  0.33848709    -0.17600
C145        C  0.98147363  0.91228627  0.34090572    -0.19800
C146        C  0.95707849  0.91442804  0.36332094     0.20500
C147        C  0.91380165  0.89405209  0.36537016    -0.32800
C148        C  0.88752915  0.90017550  0.38692005     0.01200
C149        C  0.90632375  0.92346004  0.40739067    -0.24100
C150        C  0.08060739  0.00527641  0.39966574    -0.28700
C151        C  0.10568683  0.99995892  0.37761044     0.06900
C152        C  0.08481907  0.97978782  0.35674566    -0.27400
H153        H  0.02471058  0.00832366  0.43946086     0.11600
H154        H  0.94925072  0.97184207  0.44299742     0.12700
H155        H  0.04175623  0.93259913  0.32104722     0.11800
H156        H  0.96797659  0.89342749  0.32517478     0.11000
H157        H  0.89841675  0.87783843  0.34923758     0.16400
H158        H  0.88518671  0.92963537  0.42364218     0.12300
H159        H  0.09701437  0.02006647  0.41587790     0.15200
H160        H  0.10454255  0.97533731  0.33981457     0.15000
C161        C  0.49094073  0.03795888  0.36635686    -0.17900
C162        C  0.53805216  0.02801964  0.36609339    -0.20100
C163        C  0.55372610  0.98273707  0.36337725     0.20600
C164        C  0.52178789  0.94715897  0.36042250    -0.03000
C165        C  0.47418350  0.95728847  0.36040580    -0.06100
C166        C  0.45863433  0.00284881  0.36372226     0.20800
C167        C  0.44220313  0.92173074  0.35753503     0.19000
C168        C  0.45791289  0.87651379  0.35445749    -0.17600
C169        C  0.50504230  0.86642884  0.35476120    -0.19800
C170        C  0.53735314  0.90141356  0.35796217     0.20500
C171        C  0.58479892  0.89146063  0.35917862    -0.32800
C172        C  0.61682531  0.92685213  0.36240849     0.01200
C173        C  0.60078999  0.97243124  0.36408293    -0.24100
C174        C  0.41116347  0.01237925  0.36476565    -0.28700
C175        C  0.37901321  0.97695515  0.36226923     0.06900
C176        C  0.39505514  0.93181361  0.35827541    -0.27400
H177        H  0.47977452  0.07310584  0.36882427     0.11600
H178        H  0.56227041  0.05574040  0.36836152     0.12700
H179        H  0.43368821  0.84880302  0.35216625     0.11800
H180        H  0.51619536  0.83118830  0.35270637     0.11000
H181        H  0.59671440  0.85633678  0.35778557     0.16400
H182        H  0.62496278  0.00010031  0.36674327     0.12300
H183        H  0.39931735  0.04717865  0.36776810     0.15200
H184        H  0.37080951  0.90400889  0.35636813     0.15000
C185        C  0.97515972  0.94472984  0.09491878    -0.17900
C186        C  0.99452936  0.98829462  0.09220354    -0.20100
C187        C  0.02019770  0.00786816  0.11162547     0.20600
C188        C  0.02630994  0.98334538  0.13400832    -0.03000
C189        C  0.00531227  0.94030161  0.13708006    -0.06100
C190        C  0.98011436  0.92043663  0.11732854     0.20800
C191        C  0.00998939  0.91695164  0.15988512     0.19000
C192        C  0.03586582  0.93615865  0.17925930    -0.17600
C193        C  0.05712639  0.97843487  0.17610670    -0.19800
C194        C  0.05239338  0.00236974  0.15363305     0.20500
C195        C  0.07095358  0.04619793  0.15104900    -0.32800
C196        C  0.06209872  0.07209386  0.12961643     0.01200
C197        C  0.03772466  0.05246653  0.10968447    -0.24100
C198        C  0.96223509  0.87592942  0.12007561    -0.28700
C199        C  0.96869915  0.85208172  0.14252946     0.06900
C200        C  0.99060152  0.87373387  0.16260587    -0.27400
H201        H  0.95608856  0.93015123  0.07953320     0.11600
H202        H  0.98941335  0.00670357  0.07490466     0.12700
H203        H  0.03995662  0.91828793  0.19680432     0.11800
H204        H  0.07669681  0.99275146  0.19139561     0.11000
H205        H  0.08810432  0.06208480  0.16675699     0.16400
H206        H  0.02955985  0.07316051  0.09348911     0.12300
H207        H  0.94643496  0.85880837  0.10437528     0.15200
H208        H  0.99626893  0.85490036  0.17976417     0.15000
C209        C  0.10268962  0.45443953  0.15720273    -0.17900
C210        C  0.09242594  0.50127660  0.15886796    -0.20100
C211        C  0.04659503  0.51684483  0.15827720     0.20600
C212        C  0.01077052  0.48499653  0.15587886    -0.03000
C213        C  0.02112791  0.43765931  0.15444071    -0.06100
C214        C  0.06732177  0.42219972  0.15507999     0.20800
C215        C  0.98520061  0.40586114  0.15232877     0.19000
C216        C  0.93945139  0.42142238  0.15125975    -0.17600
C217        C  0.92925880  0.46824234  0.15241706    -0.19800
C218        C  0.96458952  0.50040315  0.15482757     0.20500
C219        C  0.95454838  0.54760994  0.15600179    -0.32800
C220        C  0.99007618  0.57969968  0.15853208     0.01200
C221        C  0.03603912  0.56372543  0.15979502    -0.24100
C222        C  0.07721128  0.37490471  0.15360040    -0.28700
C223        C  0.04134034  0.34292764  0.15193424     0.06900
C224        C  0.99548779  0.35900922  0.15126786    -0.27400
H225        H  0.13832156  0.44343119  0.15767678     0.11600
H226        H  0.12041102  0.52538359  0.16056926     0.12700
H227        H  0.91147018  0.39732617  0.14950643     0.11800
H228        H  0.89366677  0.47928812  0.15149900     0.11000
H229        H  0.91918829  0.55933698  0.15478887     0.16400
H230        H  0.06399329  0.58791473  0.16137126     0.12300
H231        H  0.11258718  0.36304127  0.15394460     0.15200
H232        H  0.96742929  0.33496834  0.14953687     0.15000
C233        C  0.20095711  0.17274099  0.24907196    -0.17900
C234        C  0.22426996  0.14667849  0.26697696    -0.20100
C235        C  0.20550832  0.10561960  0.27575037     0.20600
C236        C  0.16263115  0.09078447  0.26653583    -0.03000
C237        C  0.13874000  0.11748587  0.24864815    -0.06100
C238        C  0.15830903  0.15838041  0.23974643     0.20800
C239        C  0.09578120  0.10288737  0.23935681     0.19000
C240        C  0.07692471  0.06194397  0.24835670    -0.17600
C241        C  0.10050926  0.03557762  0.26618081    -0.19800
C242        C  0.14353687  0.04950443  0.27530391     0.20500
C243        C  0.16714514  0.02376318  0.29357569    -0.32800
C244        C  0.20902506  0.03944421  0.30353506     0.01200
C245        C  0.22825247  0.07996724  0.29415290    -0.24100
C246        C  0.13587976  0.18330508  0.22095432    -0.28700
C247        C  0.09415394  0.16800922  0.21067713     0.06900
C248        C  0.07349434  0.12849527  0.22054008    -0.27400
H249        H  0.21645535  0.20404326  0.24239242     0.11600
H250        H  0.25706419  0.15862538  0.27394495     0.12700
H251        H  0.04406209  0.05007486  0.24144702     0.11800
H252        H  0.08507833  0.00422133  0.27282071     0.11000
H253        H  0.15150362  0.99327424  0.30120698     0.16400
H254        H  0.26008688  0.09261997  0.30205538     0.12300
H255        H  0.15216309  0.21351644  0.21335069     0.15200
H256        H  0.04188406  0.11591167  0.21236976     0.15000
C257        C  0.09194207  0.68608061  0.00398013    -0.17900
C258        C  0.08825046  0.68838380  0.02989742    -0.20100
C259        C  0.04498768  0.69253740  0.04113814     0.20600
C260        C  0.00512082  0.69416132  0.02595771    -0.03000
C261        C  0.00884816  0.69206537  0.99983321    -0.06100
C262        C  0.05248826  0.68806530  0.98885726     0.20800
C263        C  0.96895976  0.69448206  0.98471879     0.19000
C264        C  0.92568808  0.69848367  0.99590530    -0.17600
C265        C  0.92197784  0.70029773  0.02176938    -0.19800
C266        C  0.96145621  0.69828706  0.03684100     0.20500
C267        C  0.95784981  0.70069901  0.06263732    -0.32800
C268        C  0.99718912  0.69946095  0.07810977     0.01200
C269        C  0.04083074  0.69537246  0.06720590    -0.24100
C270        C  0.05599454  0.68689145  0.96293195    -0.28700
C271        C  0.01654530  0.69029431  0.94763732     0.06900
C272        C  0.97304458  0.69360739  0.95870748    -0.27400
H273        H  0.12580048  0.68306991  0.99573132     0.11600
H274        H  0.11918873  0.68705433  0.04112297     0.12700
H275        H  0.89478360  0.70041178  0.98466923     0.11800
H276        H  0.88812990  0.70353682  0.03000672     0.11000
H277        H  0.92381322  0.70416721  0.07061534     0.16400
H278        H  0.07124257  0.69448504  0.07887813     0.12300
H279        H  0.08988745  0.68433996  0.95468136     0.15200
H280        H  0.94257319  0.69634596  0.94715015     0.15000
C281        C  0.27033684  0.02426505  0.50362660    -0.17900
C282        C  0.26743570  0.01680459  0.52925698    -0.20100
C283        C  0.25805043  0.97300865  0.53854786     0.20600
C284        C  0.25206942  0.93623552  0.52178879    -0.03000
C285        C  0.25474584  0.94381613  0.49588674    -0.06100
C286        C  0.26370212  0.98808606  0.48684533     0.20800
C287        C  0.24778152  0.90730596  0.47906696     0.19000
C288        C  0.23897227  0.86337318  0.48840714    -0.17600
C289        C  0.23664012  0.85577716  0.51408416    -0.19800
C290        C  0.24288679  0.89202333  0.53087947     0.20500
C291        C  0.23972546  0.88488725  0.55659053    -0.32800
C292        C  0.24511279  0.92143673  0.57345594     0.01200
C293        C  0.25426481  0.96543388  0.56426043    -0.24100
C294        C  0.26490854  0.99574697  0.46117008    -0.28700
C295        C  0.25664360  0.95998763  0.44413619     0.06900
C296        C  0.24879685  0.91559860  0.45326559    -0.27400
H297        H  0.27728205  0.05849507  0.49690966     0.11600
H298        H  0.27227998  0.04537355  0.54181209     0.12700
H299        H  0.23356699  0.83491976  0.47584714     0.11800
H300        H  0.22957312  0.82157639  0.52080884     0.11000
H301        H  0.23237682  0.85080960  0.56343855     0.16400
H302        H  0.25863186  0.99369234  0.57708639     0.12300
H303        H  0.27122674  0.03014254  0.45448911     0.15200
H304        H  0.24231212  0.88786102  0.44037833     0.15000
C305        C  0.08676327  0.86998355  0.75134402    -0.17900
C306        C  0.06045975  0.84439242  0.76810311    -0.20100
C307        C  0.07605699  0.80150226  0.77656867     0.20600
C308        C  0.11868710  0.78435802  0.76803247    -0.03000
C309        C  0.14553575  0.81047721  0.75148610    -0.06100
C310        C  0.12939258  0.85339572  0.74293117     0.20800
C311        C  0.18824735  0.79325321  0.74322156     0.19000
C312        C  0.20397711  0.75046875  0.75162914    -0.17600
C313        C  0.17751343  0.72472275  0.76804857    -0.19800
C314        C  0.13494075  0.74139348  0.77635032     0.20500
C315        C  0.10957751  0.71685217  0.79384883    -0.32800
C316        C  0.06879819  0.73508382  0.80383680     0.01200
C317        C  0.05108405  0.77649834  0.79434727    -0.24100
C318        C  0.15516210  0.87779353  0.72525220    -0.28700
C319        C  0.19636275  0.85926308  0.71585839     0.06900
C320        C  0.21351055  0.81798309  0.72574024    -0.27400
H321        H  0.07369432  0.90274150  0.74491525     0.11600
H322        H  0.02797829  0.85825513  0.77452869     0.12700
H323        H  0.23662450  0.73674879  0.74535271     0.11800
H324        H  0.19052588  0.69189408  0.77441609     0.11000
H325        H  0.12353539  0.68513144  0.80129027     0.16400
H326        H  0.02014635  0.79112085  0.80232666     0.12300
H327        H  0.14128736  0.90910828  0.71731239     0.15200
H328        H  0.24506101  0.80342619  0.71840371     0.15000
C329        C  0.08959026  0.21615317  0.98411307    -0.17900
C330        C  0.09762517  0.21683163  0.00978184    -0.20100
C331        C  0.06115231  0.22368796  0.02644367     0.20600
C332        C  0.01634529  0.23101029  0.01722703    -0.03000
C333        C  0.00832635  0.23072442  0.99133771    -0.06100
C334        C  0.04498909  0.22255578  0.97467759     0.20800
C335        C  0.96339957  0.23741053  0.98218643     0.19000
C336        C  0.92705949  0.24514263  0.99880285    -0.17600
C337        C  0.93494571  0.24503879  0.02444928    -0.19800
C338        C  0.97934537  0.23750178  0.03387402     0.20500
C339        C  0.98720716  0.23540824  0.05962182    -0.32800
C340        C  0.03167385  0.22733537  0.06892338     0.01200
C341        C  0.06855624  0.22229271  0.05216716    -0.24100
C342        C  0.03612915  0.21953086  0.94899633    -0.28700
C343        C  0.99104265  0.22455374  0.93987931     0.06900
C344        C  0.95521143  0.23479322  0.95661992    -0.27400
H345        H  0.11816356  0.20999198  0.97166217     0.11600
H346        H  0.13229312  0.21124154  0.01662584     0.12700
H347        H  0.89233373  0.25041691  0.99196964     0.11800
H348        H  0.90621884  0.25028638  0.03691594     0.11000
H349        H  0.95870581  0.23952716  0.07237260     0.16400
H350        H  0.10304111  0.21588342  0.05910383     0.12300
H351        H  0.06393541  0.21180153  0.93628080     0.15200
H352        H  0.92029599  0.23922007  0.94988009     0.15000
C353        C  0.00607166  0.97921624  0.92611394    -0.17900
C354        C  0.02496638  0.93498283  0.92530911    -0.20100
C355        C  0.02489802  0.90987914  0.90305367     0.20600
C356        C  0.00514126  0.92956750  0.88144904    -0.03000
C357        C  0.98477492  0.97348826  0.88246136    -0.06100
C358        C  0.98586995  0.99876986  0.90481085     0.20800
C359        C  0.96427105  0.99251174  0.86092374     0.19000
C360        C  0.96429446  0.96768241  0.83862350    -0.17600
C361        C  0.98472876  0.92436879  0.83757754    -0.19800
C362        C  0.00515738  0.90512416  0.85886013     0.20500
C363        C  0.02366208  0.86093846  0.85817551    -0.32800
C364        C  0.04066578  0.83993811  0.87986226     0.01200
C365        C  0.04230598  0.86478325  0.90218432    -0.24100
C366        C  0.96887946  0.04393259  0.90503179    -0.28700
C367        C  0.95008542  0.06340195  0.88333102     0.06900
C368        C  0.94634957  0.03702498  0.86167305    -0.27400
H369        H  0.00729020  0.99816056  0.94340908     0.11600
H370        H  0.03980140  0.92046973  0.94208673     0.12700
H371        H  0.94895846  0.98198909  0.82191657     0.11800
H372        H  0.98428292  0.90576107  0.82015290     0.11000
H373        H  0.02128868  0.84119122  0.84114723     0.16400
H374        H  0.05400299  0.84803547  0.91908141     0.12300
H375        H  0.97325239  0.06498372  0.92145626     0.15200
H376        H  0.93341745  0.05277438  0.84472828     0.15000
C377        C  0.07255724  0.41019027  0.85418781    -0.17900
C378        C  0.08238022  0.45692037  0.85621840    -0.20100
C379        C  0.04677528  0.48904397  0.85924513     0.20600
C380        C  0.00075499  0.47369612  0.85996961    -0.03000
C381        C  0.99086255  0.42651849  0.85812860    -0.06100
C382        C  0.02697199  0.39467905  0.85527745     0.20800
C383        C  0.94491789  0.41120080  0.85958173     0.19000
C384        C  0.90925293  0.44329459  0.86230308    -0.17600
C385        C  0.91898607  0.49000103  0.86383373    -0.19800
C386        C  0.96456985  0.50540282  0.86285843     0.20500
C387        C  0.97447337  0.55199193  0.86497457    -0.32800
C388        C  0.02017108  0.56787627  0.86457028     0.01200
C389        C  0.05628070  0.53609825  0.86172168    -0.24100
C390        C  0.01698901  0.34781635  0.85418331    -0.28700
C391        C  0.97141100  0.33200782  0.85643710     0.06900
C392        C  0.93550464  0.36407585  0.85885983    -0.27400
H393        H  0.10072557  0.38608195  0.85203710     0.11600
H394        H  0.11785219  0.46790019  0.85554324     0.12700
H395        H  0.87383949  0.43225713  0.86341346     0.11800
H396        H  0.89081767  0.51409929  0.86603711     0.11000
H397        H  0.94621421  0.57595013  0.86734300     0.16400
H398        H  0.09150434  0.54792593  0.86130300     0.12300
H399        H  0.04513512  0.32352112  0.85255381     0.15200
H400        H  0.90040105  0.35236515  0.86069620     0.15000
C401        C  0.74130875  0.01867457  0.49569750    -0.17900
C402        C  0.74036448  0.02367786  0.52152720    -0.20100
C403        C  0.73435341  0.98545676  0.53699304     0.20600
C404        C  0.72934404  0.94170919  0.52645776    -0.03000
C405        C  0.73009080  0.93668345  0.50029895    -0.06100
C406        C  0.73612843  0.97538786  0.48486690     0.20800
C407        C  0.72510510  0.89300754  0.48962034     0.19000
C408        C  0.71946403  0.85474945  0.50517789    -0.17600
C409        C  0.71889403  0.85972521  0.53112130    -0.19800
C410        C  0.72384152  0.90307112  0.54202897     0.20500
C411        C  0.72357882  0.90856159  0.56813503    -0.32800
C412        C  0.72822502  0.95236549  0.57871310     0.01200
C413        C  0.73353340  0.99043962  0.56283270    -0.24100
C414        C  0.73737411  0.97019282  0.45890679    -0.28700
C415        C  0.73276591  0.92676048  0.44802860     0.06900
C416        C  0.72635206  0.88833612  0.46361076    -0.27400
H417        H  0.74612528  0.04871248  0.48418223     0.11600
H418        H  0.74442828  0.05751745  0.52942623     0.12700
H419        H  0.71565667  0.82088342  0.49727332     0.11800
H420        H  0.71462551  0.82963115  0.54265317     0.11000
H421        H  0.71966790  0.87900044  0.58011512     0.16400
H422        H  0.73777381  0.02439453  0.57057852     0.12300
H423        H  0.74267697  0.99991957  0.44720728     0.15200
H424        H  0.72298778  0.85453801  0.45554441     0.15000
C425        C  0.00677688  0.94073107  0.59614410    -0.17900
C426        C  0.96365936  0.96208042  0.59751194    -0.20100
C427        C  0.94146203  0.96704577  0.62048242     0.20600
C428        C  0.96301255  0.95032841  0.64231395    -0.03000
C429        C  0.00576855  0.92759515  0.64083196    -0.06100
C430        C  0.02800518  0.92322974  0.61765503     0.20800
C431        C  0.02668772  0.91005864  0.66261683     0.19000
C432        C  0.00481797  0.91539971  0.68564966    -0.17600
C433        C  0.96248689  0.93802040  0.68712820    -0.19800
C434        C  0.94136513  0.95541987  0.66557865     0.20500
C435        C  0.89769688  0.97535442  0.66670119    -0.32800
C436        C  0.87456445  0.98847168  0.64486271     0.01200
C437        C  0.89703347  0.98596174  0.62188863    -0.24100
C438        C  0.07213881  0.90371805  0.61665680    -0.28700
C439        C  0.09383824  0.88832915  0.63847700     0.06900
C440        C  0.07031752  0.88985445  0.66118531    -0.27400
H441        H  0.02351894  0.93785818  0.57824064     0.11600
H442        H  0.94761830  0.97460984  0.58059045     0.12700
H443        H  0.02063657  0.90240518  0.70253894     0.11800
H444        H  0.94602099  0.94148454  0.70508549     0.11000
H445        H  0.87962016  0.97632595  0.68430697     0.16400
H446        H  0.87848961  0.99482036  0.60500960     0.12300
H447        H  0.09116581  0.90406329  0.59934703     0.15200
H448        H  0.08796388  0.87954007  0.67812432     0.15000
C449        C  0.49106669  0.02266498  0.65456475    -0.17900
C450        C  0.44407637  0.01309958  0.65364082    -0.20100
C451        C  0.42852011  0.96787085  0.65567009     0.20600
C452        C  0.46039312  0.93187680  0.65888433    -0.03000
C453        C  0.50783491  0.94160151  0.66005920    -0.06100
C454        C  0.52326683  0.98718657  0.65767035     0.20800
C455        C  0.53980017  0.90567558  0.66326770     0.19000
C456        C  0.52416151  0.86044224  0.66537750    -0.17600
C457        C  0.47714724  0.85076566  0.66400051    -0.19800
C458        C  0.44492579  0.88618524  0.66064129     0.20500
C459        C  0.39762233  0.87679476  0.65885796    -0.32800
C460        C  0.36572742  0.91269141  0.65576233     0.01200
C461        C  0.38161096  0.95808334  0.65431346    -0.24100
C462        C  0.57059648  0.99642711  0.65797144    -0.28700
C463        C  0.60274924  0.96069675  0.66076963     0.06900
C464        C  0.58689092  0.91548127  0.66381112    -0.27400
H465        H  0.50223450  0.05780524  0.65271785     0.11600
H466        H  0.41987841  0.04109249  0.65114162     0.12700
H467        H  0.54836598  0.83244365  0.66784351     0.11800
H468        H  0.46601244  0.81555579  0.66546537     0.11000
H469        H  0.38566703  0.84179999  0.66002168     0.16400
H470        H  0.35740569  0.98604770  0.65164924     0.12300
H471        H  0.58237211  0.03128212  0.65562586     0.15200
H472        H  0.61126373  0.88750734  0.66589104     0.15000
C473        C  0.91359437  0.04004781  0.77064753    -0.17900
C474        C  0.88633591  0.01291060  0.75497281    -0.20100
C475        C  0.84299995  0.02846872  0.74681424     0.20600
C476        C  0.82706797  0.07184627  0.75467838    -0.03000
C477        C  0.85477502  0.09942687  0.77025601    -0.06100
C478        C  0.89827103  0.08348233  0.77834594     0.20800
C479        C  0.83868623  0.14282353  0.77789411     0.19000
C480        C  0.79537465  0.15841420  0.76989934    -0.17600
C481        C  0.76818538  0.13134173  0.75437129    -0.19800
C482        C  0.78375837  0.08813586  0.74660615     0.20500
C483        C  0.75766433  0.06203182  0.72994011    -0.32800
C484        C  0.77432218  0.02003273  0.72073853     0.01200
C485        C  0.81627411  0.00254980  0.73004008    -0.24100
C486        C  0.92475967  0.11055291  0.79467025    -0.28700
C487        C  0.90781939  0.15298140  0.80321993     0.06900
C488        C  0.86532994  0.16924926  0.79414009    -0.27400
H489        H  0.94673098  0.02703587  0.77674142     0.11600
H490        H  0.89932299  0.97983264  0.74908722     0.12700
H491        H  0.78246303  0.19157725  0.77569809     0.11800
H492        H  0.73506904  0.14439164  0.74825788     0.11000
H493        H  0.72564137  0.07595362  0.72270910     0.16400
H494        H  0.82983281  0.97068726  0.72271679     0.12300
H495        H  0.95686611  0.09720227  0.80207462     0.15200
H496        H  0.85179065  0.20159391  0.80087738     0.15000
loop_ 
_geom_bond_atom_site_label_1 
_geom_bond_atom_site_label_2 
_geom_bond_distance 
_geom_bond_site_symmetry_2 
_ccdc_geom_bond_type 
O1           Ni9   1.939       .  S
O1           C11   1.285   1_545  A
O2           Ni9   1.936       .  S
O2           C12   1.286   1_545  A
O3           Ni9   1.895       .  S
O3           C13   1.276       .  A
O4           Ni9   1.892       .  S
O4           C14   1.277   1_545  A
O5          Ni10   1.950       .  S
O5           C14   1.289       .  A
O6          Ni10   1.950       .  S
O6           C13   1.288   1_565  A
O7          Ni10   1.899       .  S
O7           C12   1.277       .  A
O8          Ni10   1.877       .  S
O8           C11   1.273       .  A
Ni9         Ni10   2.386   1_545  S
C11         C436   1.457       .  S
C12         C463   1.484       .  S
C13         C484   1.484       .  S
C14         C412   1.489       .  S
O15         Ni23   1.941       .  S
O15          C25   1.286       .  A
O16         Ni23   1.937       .  S
O16          C26   1.287       .  A
O17         Ni23   1.895       .  S
O17          C27   1.276       .  A
O18         Ni23   1.889       .  S
O18          C28   1.276       .  A
O19         Ni24   1.941   1_455  S
O19          C28   1.287   1_455  A
O20         Ni24   1.948       .  S
O20          C27   1.288       .  A
O21         Ni24   1.902       .  S
O21          C26   1.278       .  A
O22         Ni24   1.886       .  S
O22          C25   1.273       .  A
Ni23        Ni24   2.386       .  S
C25         C367   1.461       .  S
C26         C391   1.486       .  S
C27         C487   1.483       .  S
C28         C343   1.482       .  S
O29         Ni37   1.939       .  S
O29          C39   1.285       .  A
O30         Ni37   1.938       .  S
O30          C40   1.286       .  A
O31         Ni37   1.893       .  S
O31          C41   1.277       .  A
O32         Ni37   1.898       .  S
O32          C42   1.277       .  A
O33         Ni38   1.936       .  S
O33          C42   1.287       .  A
O34         Ni38   1.939       .  S
O34          C41   1.286       .  A
O35         Ni38   1.894       .  S
O35          C40   1.277       .  A
O36         Ni38   1.881       .  S
O36          C39   1.273       .  A
Ni37        Ni38   2.388       .  S
C39         C439   1.457       .  S
C40         C460   1.481       .  S
C41         C319   1.476       .  S
C42         C292   1.481       .  S
O43         Ni51   1.951       .  S
O43          C53   1.288       .  A
O44         Ni51   1.946       .  S
O44          C54   1.288       .  A
O45         Ni51   1.885       .  S
O45          C55   1.275       .  A
O46         Ni51   1.886       .  S
O46          C56   1.274       .  A
O47         Ni52   1.941       .  S
O47          C56   1.288   1_655  A
O48         Ni52   1.944   1_455  S
O48          C55   1.287       .  A
O49         Ni52   1.892       .  S
O49          C54   1.276   1_655  A
O50         Ni52   1.878   1_455  S
O50          C53   1.272       .  A
Ni51        Ni52   2.387   1_455  S
C53         C364   1.465       .  S
C54         C388   1.486       .  S
C55         C316   1.475       .  S
C56         C271   1.481       .  S
O57         Ni65   1.945       .  S
O57          C67   1.287       .  A
O58         Ni65   1.946       .  S
O58          C68   1.288       .  A
O59         Ni65   1.899       .  S
O59          C69   1.277       .  A
O60         Ni65   1.895       .  S
O60          C70   1.276       .  A
O61         Ni66   1.934       .  S
O61          C70   1.286       .  A
O62         Ni66   1.945       .  S
O62          C69   1.287       .  A
O63         Ni66   1.899       .  S
O63          C68   1.278       .  A
O64         Ni66   1.885       .  S
O64          C67   1.273       .  A
Ni65        Ni66   2.386       .  S
C67         C196   1.463       .  S
C68         C223   1.490       .  S
C69         C247   1.484       .  S
C70         C340   1.479       .  S
O71         Ni79   1.950       .  S
O71          C81   1.287   1_545  A
O72         Ni79   1.947       .  S
O72          C82   1.289   1_545  A
O73         Ni79   1.896       .  S
O73          C83   1.276       .  A
O74         Ni79   1.894       .  S
O74          C84   1.276   1_545  A
O75         Ni80   1.944       .  S
O75          C84   1.288       .  A
O76         Ni80   1.945       .  S
O76          C83   1.288   1_565  A
O77         Ni80   1.895       .  S
O77          C82   1.276       .  A
O78         Ni80   1.874       .  S
O78          C81   1.272       .  A
Ni79        Ni80   2.386   1_545  S
C81         C151   1.466       .  S
C82         C175   1.488       .  S
C83         C244   1.481       .  S
C84         C295   1.486       .  S
O85         Ni93   1.943       .  S
O85          C95   1.286       .  A
O86         Ni93   1.944       .  S
O86          C96   1.288       .  A
O87         Ni93   1.900       .  S
O87          C97   1.278       .  A
O88         Ni93   1.903       .  S
O88          C98   1.277       .  A
O89         Ni94   1.940       .  S
O89          C98   1.288       .  A
O90         Ni94   1.949       .  S
O90          C97   1.288       .  A
O91         Ni94   1.898       .  S
O91          C96   1.277       .  A
O92         Ni94   1.878       .  S
O92          C95   1.272       .  A
Ni93        Ni94   2.386       .  S
C95         C148   1.459       .  S
C96         C172   1.487       .  S
C97         C127   1.487       .  S
C98         C415   1.489       .  S
O99        Ni107   1.953       .  S
O99         C109   1.288       .  A
O100       Ni107   1.950       .  S
O100        C110   1.289       .  A
O101       Ni107   1.884       .  S
O101        C111   1.274       .  A
O102       Ni107   1.874       .  S
O102        C112   1.272       .  A
O103       Ni108   1.954       .  S
O103        C112   1.290   1_455  A
O104       Ni108   1.960   1_655  S
O104        C111   1.291       .  A
O105       Ni108   1.899       .  S
O105        C110   1.276   1_455  A
O106       Ni108   1.873       .  S
O106        C109   1.272   1_455  A
Ni107      Ni108   2.383   1_655  S
C109        C199   1.467       .  S
C110        C220   1.493       .  S
C111        C124   1.487       .  S
C112        C268   1.483       .  S
C113        C114   1.407       .  A
C113        C118   1.407       .  A
C113        H129   1.083       .  S
C114        C115   1.407       .  A
C114        H130   1.083       .  S
C115        C125   1.417       .  A
C115        C116   1.413       .  A
C116        C122   1.410       .  A
C116        C117   1.417       .  A
C117        C119   1.411       .  A
C117        C118   1.412       .  A
C118        C126   1.415       .  A
C119        C128   1.400       .  A
C119        C120   1.402       .  A
C120        C121   1.396       .  A
C120        H131   1.084       .  S
C121        C122   1.402       .  A
C121        H132   1.084       .  S
C122        C123   1.399       .  A
C123        C124   1.407       .  A
C123        H133   1.085       .  S
C124        C125   1.412       .  A
C125        H134   1.084       .  S
C126        C127   1.412       .  A
C126        H135   1.084       .  S
C127        C128   1.406       .  A
C128        H136   1.085       .  S
C137        C138   1.401   1_455  A
C137        C142   1.403       .  A
C137        H153   1.083   1_565  S
C138        C139   1.405       .  A
C138        H154   1.084       .  S
C139        C149   1.403       .  A
C139        C140   1.410       .  A
C140        C146   1.414       .  A
C140        C141   1.410   1_655  A
C141        C143   1.408       .  A
C141        C142   1.416       .  A
C142        C150   1.409   1_565  A
C143        C152   1.394       .  A
C143        C144   1.403       .  A
C144        C145   1.396   1_455  A
C144        H155   1.084       .  S
C145        C146   1.402       .  A
C145        H156   1.084       .  S
C146        C147   1.401       .  A
C147        C148   1.401       .  A
C147        H157   1.085       .  S
C148        C149   1.405       .  A
C149        H158   1.085       .  S
C150        C151   1.403   1_545  A
C150        H159   1.084       .  S
C151        C152   1.406       .  A
C152        H160   1.085       .  S
C161        C162   1.399       .  A
C161        C166   1.402       .  A
C161        H177   1.084       .  S
C162        C163   1.405   1_545  A
C162        H178   1.083       .  S
C163        C173   1.400       .  A
C163        C164   1.407       .  A
C164        C170   1.415       .  A
C164        C165   1.414       .  A
C165        C167   1.407       .  A
C165        C166   1.415   1_565  A
C166        C174   1.408       .  A
C167        C176   1.402       .  A
C167        C168   1.405       .  A
C168        C169   1.401       .  A
C168        H179   1.084       .  S
C169        C170   1.403       .  A
C169        H180   1.084       .  S
C170        C171   1.410       .  A
C171        C172   1.407       .  A
C171        H181   1.084       .  S
C172        C173   1.411       .  A
C173        H182   1.084   1_565  S
C174        C175   1.405   1_545  A
C174        H183   1.084       .  S
C175        C176   1.413       .  A
C176        H184   1.084       .  S
C185        C186   1.403       .  A
C185        C190   1.404       .  A
C185        H201   1.084       .  S
C186        C187   1.406   1_665  A
C186        H202   1.083   1_565  S
C187        C197   1.406       .  A
C187        C188   1.410   1_545  A
C188        C194   1.414   1_565  A
C188        C189   1.411       .  A
C189        C191   1.408       .  A
C189        C190   1.415   1_455  A
C190        C198   1.411       .  A
C191        C200   1.394   1_455  A
C191        C192   1.403       .  A
C192        C193   1.395       .  A
C192        H203   1.084       .  S
C193        C194   1.401   1_565  A
C193        H204   1.084       .  S
C194        C195   1.400       .  A
C195        C196   1.400       .  A
C195        H205   1.086       .  S
C196        C197   1.408       .  A
C197        H206   1.084       .  S
C198        C199   1.405       .  A
C198        H207   1.084       .  S
C199        C200   1.405       .  A
C200        H208   1.085       .  S
C209        C210   1.402       .  A
C209        C214   1.404       .  A
C209        H225   1.084       .  S
C210        C211   1.406       .  A
C210        H226   1.083       .  S
C211        C221   1.404       .  A
C211        C212   1.407       .  A
C212        C218   1.415   1_455  A
C212        C213   1.416       .  A
C213        C215   1.407   1_455  A
C213        C214   1.415       .  A
C214        C222   1.412       .  A
C215        C224   1.401       .  A
C215        C216   1.405       .  A
C216        C217   1.399       .  A
C216        H227   1.083       .  S
C217        C218   1.403       .  A
C217        H228   1.083       .  S
C218        C219   1.410       .  A
C219        C220   1.406       .  A
C219        H229   1.084       .  S
C220        C221   1.415   1_655  A
C221        H230   1.084       .  S
C222        C223   1.408       .  A
C222        H231   1.084       .  S
C223        C224   1.412   1_455  A
C224        H232   1.084       .  S
C233        C234   1.398       .  A
C233        C238   1.403       .  A
C233        H249   1.084       .  S
C234        C235   1.403       .  A
C234        H250   1.084       .  S
C235        C245   1.402       .  A
C235        C236   1.411       .  A
C236        C242   1.412       .  A
C236        C237   1.415       .  A
C237        C239   1.413       .  A
C237        C238   1.411       .  A
C238        C246   1.402       .  A
C239        C248   1.411       .  A
C239        C240   1.405       .  A
C240        C241   1.404       .  A
C240        H251   1.084       .  S
C241        C242   1.405       .  A
C241        H252   1.083       .  S
C242        C243   1.411       .  A
C243        C244   1.408       .  A
C243        H253   1.084   1_545  S
C244        C245   1.406       .  A
C245        H254   1.085       .  S
C246        C247   1.407       .  A
C246        H255   1.085       .  S
C247        C248   1.409       .  A
C248        H256   1.084       .  S
C257        C258   1.400       .  A
C257        C262   1.405   1_554  A
C257        H273   1.085   1_554  S
C258        C259   1.403       .  A
C258        H274   1.082       .  S
C259        C269   1.410       .  A
C259        C260   1.416       .  A
C260        C266   1.405   1_455  A
C260        C261   1.411   1_554  A
C261        C263   1.416   1_455  A
C261        C262   1.406       .  A
C262        C270   1.399       .  A
C263        C272   1.404       .  A
C263        C264   1.401       .  A
C264        C265   1.396   1_556  A
C264        H275   1.082       .  S
C265        C266   1.404       .  A
C265        H276   1.085       .  S
C266        C267   1.393       .  A
C267        C268   1.413       .  A
C267        H277   1.085       .  S
C268        C269   1.405   1_655  A
C269        H278   1.083       .  S
C270        C271   1.412       .  A
C270        H279   1.085       .  S
C271        C272   1.403   1_455  A
C272        H280   1.083       .  S
C281        C282   1.398       .  A
C281        C286   1.404   1_545  A
C281        H297   1.083       .  S
C282        C283   1.402   1_545  A
C282        H298   1.084       .  S
C283        C293   1.405       .  A
C283        C284   1.414       .  A
C284        C290   1.408       .  A
C284        C285   1.413       .  A
C285        C287   1.414       .  A
C285        C286   1.408       .  A
C286        C294   1.399       .  A
C287        C296   1.409       .  A
C287        C288   1.403       .  A
C288        C289   1.400       .  A
C288        H299   1.084       .  S
C289        C290   1.405       .  A
C289        H300   1.083       .  S
C290        C291   1.401       .  A
C291        C292   1.411       .  A
C291        H301   1.084       .  S
C292        C293   1.404       .  A
C293        H302   1.084       .  S
C294        C295   1.411       .  A
C294        H303   1.084   1_565  S
C295        C296   1.407       .  A
C296        H304   1.084       .  S
C305        C306   1.403       .  A
C305        C310   1.405       .  A
C305        H321   1.083       .  S
C306        C307   1.405       .  A
C306        H322   1.084       .  S
C307        C317   1.409       .  A
C307        C308   1.413       .  A
C308        C314   1.410       .  A
C308        C309   1.412       .  A
C309        C311   1.411       .  A
C309        C310   1.412       .  A
C310        C318   1.409       .  A
C311        C320   1.399       .  A
C311        C312   1.402       .  A
C312        C313   1.396       .  A
C312        H323   1.084       .  S
C313        C314   1.403       .  A
C313        H324   1.084       .  S
C314        C315   1.398       .  A
C315        C316   1.406       .  A
C315        H325   1.085       .  S
C316        C317   1.407       .  A
C317        H326   1.084       .  S
C318        C319   1.408       .  A
C318        H327   1.084       .  S
C319        C320   1.405       .  A
C320        H328   1.085       .  S
C329        C330   1.399   1_556  A
C329        C334   1.403       .  A
C329        H345   1.083       .  S
C330        C331   1.405       .  A
C330        H346   1.084       .  S
C331        C341   1.400       .  A
C331        C332   1.408       .  A
C332        C338   1.414   1_455  A
C332        C333   1.411   1_554  A
C333        C335   1.407   1_455  A
C333        C334   1.415       .  A
C334        C342   1.407       .  A
C335        C344   1.397       .  A
C335        C336   1.404       .  A
C336        C337   1.397   1_556  A
C336        H347   1.084       .  S
C337        C338   1.402       .  A
C337        H348   1.083       .  S
C338        C339   1.404       .  A
C339        C340   1.404   1_655  A
C339        H349   1.084       .  S
C340        C341   1.411       .  A
C341        H350   1.084       .  S
C342        C343   1.405   1_455  A
C342        H351   1.084       .  S
C343        C344   1.411       .  A
C344        H352   1.084       .  S
C353        C354   1.402       .  A
C353        C358   1.405   1_455  A
C353        H369   1.083       .  S
C354        C355   1.404       .  A
C354        H370   1.084       .  S
C355        C365   1.409       .  A
C355        C356   1.414       .  A
C356        C362   1.410       .  A
C356        C357   1.411   1_455  A
C357        C359   1.413       .  A
C357        C358   1.412       .  A
C358        C366   1.406   1_565  A
C359        C368   1.399   1_565  A
C359        C360   1.402       .  A
C360        C361   1.396       .  A
C360        H371   1.084       .  S
C361        C362   1.403   1_655  A
C361        H372   1.084       .  S
C362        C363   1.396       .  A
C363        C364   1.404       .  A
C363        H373   1.085       .  S
C364        C365   1.404       .  A
C365        H374   1.084       .  S
C366        C367   1.405       .  A
C366        H375   1.084       .  S
C367        C368   1.401       .  A
C368        H376   1.085       .  S
C377        C378   1.401       .  A
C377        C382   1.405       .  A
C377        H393   1.084       .  S
C378        C379   1.403       .  A
C378        H394   1.083       .  S
C379        C389   1.410       .  A
C379        C380   1.415       .  A
C380        C386   1.407   1_455  A
C380        C381   1.413   1_455  A
C381        C383   1.414       .  A
C381        C382   1.408   1_655  A
C382        C390   1.403       .  A
C383        C392   1.406       .  A
C383        C384   1.402       .  A
C384        C385   1.398       .  A
C384        H395   1.083       .  S
C385        C386   1.404       .  A
C385        H396   1.084       .  S
C386        C387   1.398       .  A
C387        C388   1.411   1_655  A
C387        H397   1.084       .  S
C388        C389   1.406       .  A
C389        H398   1.084       .  S
C390        C391   1.412   1_455  A
C390        H399   1.084       .  S
C391        C392   1.405       .  A
C392        H400   1.084       .  S
C401        C402   1.397       .  A
C401        C406   1.402   1_545  A
C401        H417   1.084       .  S
C402        C403   1.404   1_545  A
C402        H418   1.083       .  S
C403        C413   1.397       .  A
C403        C404   1.407       .  A
C404        C410   1.415       .  A
C404        C405   1.415       .  A
C405        C407   1.408       .  A
C405        C406   1.414       .  A
C406        C414   1.405       .  A
C407        C416   1.406       .  A
C407        C408   1.406       .  A
C408        C409   1.403       .  A
C408        H419   1.083       .  S
C409        C410   1.404       .  A
C409        H420   1.083       .  S
C410        C411   1.413       .  A
C411        C412   1.408       .  A
C411        H421   1.084       .  S
C412        C413   1.411       .  A
C413        H422   1.084   1_565  S
C414        C415   1.405       .  A
C414        H423   1.084       .  S
C415        C416   1.414       .  A
C416        H424   1.084       .  S
C425        C426   1.400   1_455  A
C425        C430   1.404       .  A
C425        H441   1.084       .  S
C426        C427   1.403       .  A
C426        H442   1.083       .  S
C427        C437   1.405       .  A
C427        C428   1.414       .  A
C428        C434   1.410       .  A
C428        C429   1.409   1_655  A
C429        C431   1.412       .  A
C429        C430   1.412       .  A
C430        C438   1.403       .  A
C431        C440   1.399       .  A
C431        C432   1.403       .  A
C432        C433   1.396   1_455  A
C432        H443   1.084       .  S
C433        C434   1.403       .  A
C433        H444   1.084       .  S
C434        C435   1.396       .  A
C435        C436   1.403       .  A
C435        H445   1.085       .  S
C436        C437   1.401       .  A
C437        H446   1.084       .  S
C438        C439   1.403       .  A
C438        H447   1.085       .  S
C439        C440   1.402       .  A
C440        H448   1.085       .  S
C449        C450   1.398       .  A
C449        C454   1.402   1_545  A
C449        H465   1.083       .  S
C450        C451   1.404   1_545  A
C450        H466   1.084       .  S
C451        C461   1.398       .  A
C451        C452   1.408       .  A
C452        C458   1.415       .  A
C452        C453   1.412       .  A
C453        C455   1.408       .  A
C453        C454   1.414       .  A
C454        C462   1.405       .  A
C455        C464   1.401       .  A
C455        C456   1.405       .  A
C456        C457   1.400       .  A
C456        H467   1.084       .  S
C457        C458   1.403       .  A
C457        H468   1.083       .  S
C458        C459   1.408       .  A
C459        C460   1.405       .  A
C459        H469   1.084       .  S
C460        C461   1.409       .  A
C461        H470   1.084       .  S
C462        C463   1.405       .  A
C462        H471   1.084   1_565  S
C463        C464   1.412       .  A
C464        H472   1.084       .  S
C473        C474   1.404       .  A
C473        C478   1.406       .  A
C473        H489   1.083       .  S
C474        C475   1.406       .  A
C474        H490   1.083   1_545  S
C475        C485   1.413       .  A
C475        C476   1.412       .  A
C476        C482   1.411       .  A
C476        C477   1.416       .  A
C477        C479   1.411       .  A
C477        C478   1.413       .  A
C478        C486   1.412       .  A
C479        C488   1.401       .  A
C479        C480   1.403       .  A
C480        C481   1.397       .  A
C480        H491   1.084       .  S
C481        C482   1.403       .  A
C481        H492   1.084       .  S
C482        C483   1.402       .  A
C483        C484   1.407       .  A
C483        H493   1.085       .  S
C484        C485   1.410       .  A
C485        H494   1.084   1_545  S
C486        C487   1.409       .  A
C486        H495   1.084       .  S
C487        C488   1.407       .  A
C488        H496   1.085       .  S
