geometry optimzed in LAMMPS
_audit_creation_date              2020-12-01 
_audit_creation_method            'lammps2cif' 
_symmetry_space_group_name_H-M    'P1' 
_symmetry_Int_Tables_number       1 
_symmetry_cell_setting            triclinic 
loop_ 
_symmetry_equiv_pos_as_xyz 
  x,y,z 
_cell_length_a                    47.73272193 
_cell_length_b                    47.74667128329429 
_cell_length_c                    49.486167230344606 
_cell_angle_alpha                 89.9981174952004 
_cell_angle_beta                  90.01859785156967 
_cell_angle_gamma                 120.01181351798215 
loop_ 
_atom_site_label 
_atom_site_type_symbol 
_atom_site_fract_x 
_atom_site_fract_y 
_atom_site_fract_z 
_atom_site_charge 
O1          O  0.36872533  0.49700217  0.20153131    -0.74900
O2          O  0.40217226  0.43819901  0.21523826    -0.75000
O3          O  0.36215427  0.44173947  0.17771343    -0.75000
O4          O  0.41146077  0.49385126  0.23599687    -0.75100
O5          O  0.37076896  0.46775968  0.26512783    -0.75000
O6          O  0.32034212  0.41319356  0.20525192    -0.75000
O7          O  0.35963721  0.41085178  0.24240508    -0.74900
O8          O  0.32835080  0.46783103  0.23010295    -0.75000
Ni9        Ni  0.38754362  0.46867362  0.20645716     1.25400
Ni10       Ni  0.34332932  0.43874601  0.23664498     1.25400
C11         C  0.34306916  0.49202107  0.21453734     0.87300
C12         C  0.38609217  0.41543467  0.23240809     0.87200
C13         C  0.33360590  0.41845696  0.18169099     0.87200
C14         C  0.39933992  0.99100406  0.25935979     0.87400
O15         O  0.33052919  0.03520332  0.22220341    -0.74900
O16         O  0.27171470  0.06865033  0.20851745    -0.75000
O17         O  0.27525932  0.02863694  0.24602332    -0.75000
O18         O  0.32736802  0.07792662  0.18775596    -0.75100
O19         O  0.30124243  0.03725388  0.15860476    -0.75000
O20         O  0.24668504  0.48684047  0.21846358    -0.75000
O21         O  0.24433402  0.02612181  0.18134177    -0.74900
O22         O  0.30134428  0.99484922  0.19360673    -0.75000
Ni23       Ni  0.30219434  0.05401896  0.21728851     1.25400
Ni24       Ni  0.27224162  0.00981972  0.18708215     1.25400
C25         C  0.32554443  0.00955904  0.20918095     0.87300
C26         C  0.24893320  0.05257573  0.19134521     0.87200
C27         C  0.25196890  0.00009561  0.24203490     0.87200
C28         C  0.32450537  0.06579969  0.16438036     0.87400
O29         O  0.48585643  0.11415781  0.45152113    -0.74900
O30         O  0.04466792  0.08070877  0.46521416    -0.75000
O31         O  0.48901400  0.07143559  0.48597252    -0.75000
O32         O  0.04112553  0.12071932  0.42770458    -0.75100
O33         O  0.06968729  0.16252269  0.45525739    -0.75000
O34         O  0.01513814  0.11211075  0.01512167    -0.75000
O35         O  0.07204762  0.12323830  0.49238899    -0.74900
O36         O  0.01504280  0.15451493  0.48011494    -0.75000
Ni37       Ni  0.01418944  0.09534061  0.45643973     1.25400
Ni38       Ni  0.04414235  0.13954204  0.48664407     1.25400
C39         C  0.49084308  0.13980453  0.46454050     0.87300
C40         C  0.06744893  0.09678442  0.48238659     0.87200
C41         C  0.49187535  0.08356463  0.00934611     0.87200
C42         C  0.06441675  0.14926019  0.43169158     0.87400
O43         O  0.44764782  0.15236267  0.47218560    -0.74900
O44         O  0.41419809  0.21116261  0.45847805    -0.75000
O45         O  0.40491131  0.15551019  0.43772007    -0.75000
O46         O  0.45421965  0.20762668  0.49600207    -0.75100
O47         O  0.49603014  0.23617241  0.46846233    -0.75000
O48         O  0.44560234  0.18160154  0.40858845    -0.75000
O49         O  0.45673125  0.23850963  0.43130922    -0.74900
O50         O  0.48802190  0.18153367  0.44361351    -0.75000
Ni51       Ni  0.42882879  0.18069003  0.46725922     1.25400
Ni52       Ni  0.47304174  0.21061736  0.43707023     1.25400
C53         C  0.47330343  0.15734339  0.45917961     0.87300
C54         C  0.43027614  0.23392642  0.44130708     0.87200
C55         C  0.41704843  0.15834935  0.41435541     0.87200
C56         C  0.48276737  0.23090896  0.49202305     0.87400
O57         O  0.11428949  0.48569069  0.30551646    -0.74900
O58         O  0.08087616  0.04450666  0.29180991    -0.75000
O59         O  0.07155859  0.48885371  0.27105258    -0.75000
O60         O  0.12088930  0.04095571  0.32933288    -0.75100
O61         O  0.16270301  0.06949492  0.30179413    -0.75000
O62         O  0.11226704  0.01493333  0.24191955    -0.75000
O63         O  0.12341181  0.07184642  0.26464215    -0.74900
O64         O  0.15467973  0.01485198  0.27694355    -0.75000
Ni65       Ni  0.09549504  0.01402441  0.30058984     1.25400
Ni66       Ni  0.13971075  0.04394437  0.27040161     1.25400
C67         C  0.13994291  0.49066517  0.29250883     0.87300
C68         C  0.09696000  0.06727043  0.27463972     0.87200
C69         C  0.08369456  0.49169198  0.24768818     0.87200
C70         C  0.14944039  0.06423395  0.32535533     0.87400
O71         O  0.15249787  0.44748166  0.28484903    -0.74900
O72         O  0.21131984  0.41404388  0.29853775    -0.75000
O73         O  0.15566293  0.40476065  0.31929790    -0.75000
O74         O  0.20776995  0.45405335  0.26103117    -0.75100
O75         O  0.23632616  0.49585649  0.28858555    -0.75000
O76         O  0.18178453  0.44543396  0.34844919    -0.75000
O77         O  0.23869640  0.45657369  0.32571277    -0.74900
O78         O  0.18167851  0.48783583  0.31344702    -0.75000
Ni79       Ni  0.18083595  0.42866995  0.28976555     1.25400
Ni80       Ni  0.21078435  0.47287017  0.31997191     1.25400
C81         C  0.15747974  0.47312558  0.29787059     0.87300
C82         C  0.23410041  0.43012128  0.31570900     0.87200
C83         C  0.15852347  0.41688703  0.34267275     0.87200
C84         C  0.23105771  0.48259499  0.26501919     0.87400
O85         O  0.20208049  0.16366930  0.36819959    -0.74900
O86         O  0.23551681  0.10485724  0.38190429    -0.75000
O87         O  0.19550424  0.10840586  0.34437776    -0.75000
O88         O  0.24480890  0.16050899  0.40266845    -0.75100
O89         O  0.20411307  0.13441475  0.43179522    -0.75000
O90         O  0.15368867  0.07986197  0.37191332    -0.75000
O91         O  0.19297689  0.07750795  0.40906599    -0.74900
O92         O  0.16170328  0.13449882  0.39676903    -0.75000
Ni93       Ni  0.22089350  0.13533603  0.37312482     1.25400
Ni94       Ni  0.17667520  0.10540791  0.40330876     1.25400
C95         C  0.17642469  0.15868949  0.38120479     0.87300
C96         C  0.21943322  0.08209067  0.39907124     0.87200
C97         C  0.16695430  0.08512672  0.34835354     0.87200
C98         C  0.23266910  0.15766669  0.42603141     0.87400
O99         O  0.16387109  0.20187522  0.38886362    -0.74900
O100        O  0.10504822  0.23531315  0.37517979    -0.75000
O101        O  0.10860258  0.19530651  0.41268691    -0.75000
O102        O  0.16070119  0.24459370  0.35441443    -0.75100
O103        O  0.13457616  0.20391784  0.32526605    -0.75000
O104        O  0.08004157  0.15350187  0.38513523    -0.75000
O105        O  0.07766789  0.19278178  0.34800705    -0.74900
O106        O  0.13468552  0.16151798  0.36026977    -0.75000
Ni107      Ni  0.13553259  0.22068702  0.38394944     1.25400
Ni108      Ni  0.10557962  0.17648448  0.35374623     1.25400
C109        C  0.15888607  0.17622969  0.37584343     0.87300
C110        C  0.08226565  0.21923563  0.35801035     0.87200
C111        C  0.08531304  0.16676461  0.40870038     0.87200
C112        C  0.15783717  0.23246512  0.33103949     0.87400
O113        O  0.31918740  0.28081647  0.11818586    -0.74900
O114        O  0.37801148  0.24738151  0.13187573    -0.75000
O115        O  0.32235659  0.23810050  0.15263809    -0.75000
O116        O  0.37445824  0.28738684  0.09436558    -0.75100
O117        O  0.40301719  0.32919303  0.12191637    -0.75000
O118        O  0.34847941  0.27877853  0.18178479    -0.75000
O119        O  0.40538980  0.28991393  0.15904778    -0.74900
O120        O  0.34837137  0.32117606  0.14677824    -0.75000
Ni121      Ni  0.34752703  0.26200651  0.12310291     1.25400
Ni122      Ni  0.37747786  0.30621084  0.15330500     1.25400
C123        C  0.32417060  0.30646272  0.13120514     0.87300
C124        C  0.40079215  0.26345932  0.14904653     0.87200
C125        C  0.32521838  0.25023107  0.17601111     0.87200
C126        C  0.39774617  0.31593059  0.09835130     0.87400
O127        O  0.28097269  0.31901796  0.13885002    -0.74900
O128        O  0.24752925  0.37782538  0.12514831    -0.75000
O129        O  0.23823756  0.32217397  0.10438588    -0.75000
O130        O  0.28754646  0.37428011  0.16267124    -0.75100
O131        O  0.32935859  0.40282590  0.13513296    -0.75000
O132        O  0.27892911  0.34826637  0.07525486    -0.75000
O133        O  0.29006481  0.40517381  0.09798226    -0.74900
O134        O  0.32134636  0.34818894  0.11027779    -0.75000
Ni135      Ni  0.26215592  0.34734853  0.13392652     1.25400
Ni136      Ni  0.30637003  0.37727662  0.10373879     1.25400
C137        C  0.30662859  0.32399929  0.12584336     0.87300
C138        C  0.26361014  0.40059131  0.10797987     0.87200
C139        C  0.25037323  0.32501498  0.08102081     0.87200
C140        C  0.31609451  0.39756149  0.15869344     0.87400
O141        O  0.03540812  0.33035003  0.03486148    -0.74900
O142        O  0.06884301  0.27153781  0.04857232    -0.75000
O143        O  0.02883037  0.27508425  0.01104431    -0.75000
O144        O  0.07813667  0.32719243  0.06933190    -0.75100
O145        O  0.03744182  0.30110159  0.09846013    -0.75000
O146        O  0.48701517  0.24654288  0.03858072    -0.75000
O147        O  0.02630423  0.24419235  0.07573567    -0.74900
O148        O  0.99503136  0.30118290  0.06343241    -0.75000
Ni149      Ni  0.05422034  0.30201676  0.03978983     1.25400
Ni150      Ni  0.01000274  0.27209227  0.06997517     1.25400
C151        C  0.00975186  0.32537192  0.04786629     0.87300
C152        C  0.05275886  0.24877285  0.06574111     0.87200
C153        C  0.00028038  0.25180521  0.01502133     0.87200
C154        C  0.06599835  0.32435188  0.09269546     0.87400
O155        O  0.49719574  0.36855586  0.05552157    -0.74900
O156        O  0.43836634  0.40198516  0.04183634    -0.75000
O157        O  0.44192477  0.36198114  0.07934392    -0.75000
O158        O  0.49402184  0.41127135  0.02107089    -0.75100
O159        O  0.46789977  0.37059341  0.49192377    -0.75000
O160        O  0.41336721  0.32017488  0.05179292    -0.75000
O161        O  0.41098892  0.35945242  0.01466420    -0.74900
O162        O  0.46801324  0.32819705  0.02692812    -0.75000
Ni163      Ni  0.46885379  0.38736345  0.05060626     1.25400
Ni164      Ni  0.43890403  0.34315914  0.02040386     1.25400
C165        C  0.49221294  0.34291020  0.04250198     0.87300
C166        C  0.41558345  0.38590527  0.02466639     0.87200
C167        C  0.41863863  0.33343788  0.07535847     0.87200
C168        C  0.99116059  0.39914155  0.99769651     0.87400
O169        O  0.28661161  0.44744595  0.03484747    -0.74900
O170        O  0.19434267  0.41402954  0.04855336    -0.75000
O171        O  0.23790444  0.45403003  0.01103677    -0.75000
O172        O  0.24072052  0.40472624  0.06929778    -0.75100
O173        O  0.25533252  0.44540005  0.09845086    -0.75000
O174        O  0.25122150  0.49583887  0.03859013    -0.75000
O175        O  0.20956414  0.45656684  0.07572367    -0.74900
O176        O  0.29784416  0.48779709  0.06345292    -0.75000
Ni177      Ni  0.23945329  0.42864229  0.03977022     1.25400
Ni178      Ni  0.25377373  0.47284551  0.06997777     1.25400
C179        C  0.30730500  0.47308617  0.04787255     0.87300
C180        C  0.18767468  0.43011617  0.06572716     0.87200
C181        C  0.24320103  0.48257875  0.01502336     0.87200
C182        C  0.25002150  0.41685333  0.09267060     0.87400
O183        O  0.36307955  0.48568356  0.05553363    -0.74900
O184        O  0.45536209  0.04454559  0.04184155    -0.75000
O185        O  0.41179978  0.04098552  0.07935425    -0.75000
O186        O  0.40897098  0.48885817  0.02108600    -0.75100
O187        O  0.39437786  0.01492991  0.49194053    -0.75000
O188        O  0.39848601  0.06947843  0.05179783    -0.75000
O189        O  0.44014665  0.07186531  0.01466891    -0.74900
O190        O  0.35186342  0.01481163  0.02693467    -0.75000
Ni191      Ni  0.41025050  0.01404794  0.05062295     1.25400
Ni192      Ni  0.39593560  0.04393311  0.02041203     1.25400
C193        C  0.34238794  0.49062877  0.04250629     0.87300
C194        C  0.46203366  0.06730138  0.02466711     0.87200
C195        C  0.40650446  0.06423898  0.07536550     0.87200
C196        C  0.39967306  0.49168533  0.99771204     0.87400
O197        O  0.45328632  0.16367535  0.11818345    -0.74900
O198        O  0.36101632  0.10481941  0.13188482    -0.75000
O199        O  0.40739439  0.16050002  0.15263051    -0.75000
O200        O  0.40457962  0.10838203  0.09437091    -0.75100
O201        O  0.41789441  0.07988924  0.12192629    -0.75000
O202        O  0.42200020  0.13443375  0.18178559    -0.75000
O203        O  0.37623293  0.07749934  0.15905581    -0.74900
O204        O  0.46451552  0.13455536  0.14679133    -0.75000
Ni205      Ni  0.40612776  0.13531828  0.12310356     1.25400
Ni206      Ni  0.42044385  0.10543264  0.15331312     1.25400
C207        C  0.47397769  0.15872959  0.13121113     0.87300
C208        C  0.35434641  0.08206345  0.14905927     0.87200
C209        C  0.41669165  0.15767121  0.17600419     0.87200
C210        C  0.40987555  0.08512972  0.09835949     0.87400
O211        O  0.02975240  0.20191213  0.13887432    -0.74900
O212        O  0.12202311  0.23533592  0.12517062    -0.75000
O213        O  0.07564267  0.24463510  0.10442638    -0.75000
O214        O  0.07846200  0.19533111  0.16268570    -0.75100
O215        O  0.06514807  0.15352424  0.13513072    -0.75000
O216        O  0.06103655  0.20396381  0.07527140    -0.75000
O217        O  0.10680571  0.19279984  0.09799957    -0.74900
O218        O  0.01852392  0.16156395  0.11026694    -0.75000
Ni219      Ni  0.07691144  0.22071902  0.13395298     1.25400
Ni220      Ni  0.06259556  0.17651833  0.10374378     1.25400
C221        C  0.00906171  0.17627343  0.12584715     0.87300
C222        C  0.12869420  0.21925148  0.10799644     0.87200
C223        C  0.06634498  0.23251055  0.08105215     0.87200
C224        C  0.07316806  0.16678259  0.15869805     0.87400
O225        O  0.11996471  0.11413829  0.20151025    -0.74900
O226        O  0.02769326  0.08070651  0.21521588    -0.75000
O227        O  0.07125234  0.12071715  0.17770176    -0.75000
O228        O  0.07407709  0.07141158  0.23595635    -0.75100
O229        O  0.08868236  0.11208032  0.26511390    -0.75000
O230        O  0.08456141  0.16252091  0.20525920    -0.75000
O231        O  0.04290686  0.12323814  0.24239119    -0.74900
O232        O  0.13119131  0.15448544  0.23011836    -0.75000
Ni233      Ni  0.07280573  0.09532842  0.20643210     1.25400
Ni234      Ni  0.08711856  0.13952609  0.23664403     1.25400
C235        C  0.14065548  0.13977683  0.21453807     0.87300
C236        C  0.02102127  0.09678627  0.23239328     0.87200
C237        C  0.07654318  0.14926426  0.18169089     0.87200
C238        C  0.08337491  0.08353461  0.25933076     0.87400
O239        O  0.19642813  0.15236944  0.22220610    -0.74900
O240        O  0.28870160  0.21121395  0.20850725    -0.75000
O241        O  0.24513917  0.20765965  0.24601758    -0.75000
O242        O  0.24231968  0.15553489  0.18776345    -0.75100
O243        O  0.22772082  0.18160278  0.15860391    -0.75000
O244        O  0.23183025  0.23615456  0.21845914    -0.75000
O245        O  0.27349151  0.23853670  0.18133286    -0.74900
O246        O  0.18520582  0.18149099  0.19359435    -0.75000
Ni247      Ni  0.24358839  0.18072041  0.21728747     1.25400
Ni248      Ni  0.22927954  0.21060818  0.18707396     1.25400
C249        C  0.17574039  0.15731833  0.20917645     0.87300
C250        C  0.29537630  0.23397043  0.19133154     0.87200
C251        C  0.23984582  0.23091340  0.24202734     0.87200
C252        C  0.23302514  0.15836285  0.16438802     0.87400
O253        O  0.28661851  0.33034570  0.28484538    -0.74900
O254        O  0.19434731  0.27148642  0.29854346    -0.75000
O255        O  0.24072127  0.32716831  0.31928949    -0.75000
O256        O  0.23791469  0.27505312  0.26103225    -0.75100
O257        O  0.25123217  0.24656330  0.28858888    -0.75000
O258        O  0.25532476  0.30110296  0.34844757    -0.75000
O259        O  0.20956480  0.24416702  0.32571435    -0.74900
O260        O  0.29784712  0.30122925  0.31345760    -0.75000
Ni261      Ni  0.23945909  0.30198747  0.28976382     1.25400
Ni262      Ni  0.25377519  0.27210400  0.31997560     1.25400
C263        C  0.30730874  0.32539992  0.29787568     0.87300
C264        C  0.18767746  0.24872991  0.31571723     0.87200
C265        C  0.25001502  0.32433996  0.34266466     0.87200
C266        C  0.24321394  0.25180253  0.26502119     0.87400
O267        O  0.36308586  0.36857819  0.30553878    -0.74900
O268        O  0.45535484  0.40199191  0.29183752    -0.75000
O269        O  0.40897966  0.41129809  0.27109127    -0.75000
O270        O  0.41178933  0.36198805  0.32935077    -0.75100
O271        O  0.39847139  0.32018078  0.30179521    -0.75000
O272        O  0.39437053  0.37062654  0.24193624    -0.75000
O273        O  0.44013497  0.35945599  0.26466586    -0.74900
O274        O  0.35185322  0.32822975  0.27693046    -0.75000
Ni275      Ni  0.41024400  0.38737946  0.30061846     1.25400
Ni276      Ni  0.39592453  0.34317853  0.27040867     1.25400
C277        C  0.34239333  0.34294124  0.29251034     0.87300
C278        C  0.46202416  0.38590744  0.27466299     0.87200
C279        C  0.39968108  0.39917366  0.24771822     0.87200
C280        C  0.40649092  0.33343790  0.32536291     0.87400
O281        O  0.45327231  0.28078238  0.36817674    -0.74900
O282        O  0.36100323  0.24736124  0.38188321    -0.75000
O283        O  0.40456397  0.28736732  0.34436808    -0.75000
O284        O  0.40738385  0.23806020  0.40262557    -0.75100
O285        O  0.42199283  0.27873160  0.43178074    -0.75000
O286        O  0.41788027  0.32917386  0.37192399    -0.75000
O287        O  0.37622229  0.28989639  0.40905552    -0.74900
O288        O  0.46450389  0.32113099  0.39678475    -0.75000
Ni289      Ni  0.40611426  0.26197740  0.37309953     1.25400
Ni290      Ni  0.42043277  0.30617790  0.40330959     1.25400
C291        C  0.47396553  0.30642064  0.38120389     0.87300
C292        C  0.35433432  0.26344511  0.39905863     0.87200
C293        C  0.40986058  0.31591648  0.34835648     0.87200
C294        C  0.41668486  0.25018590  0.42599838     0.87400
O295        O  0.02973920  0.31901578  0.38886930    -0.74900
O296        O  0.12201031  0.37786834  0.37516875    -0.75000
O297        O  0.07844608  0.37430925  0.41267824    -0.75000
O298        O  0.07563300  0.32218588  0.35442669    -0.75100
O299        O  0.06102836  0.34824800  0.32526613    -0.75000
O300        O  0.06513373  0.40280099  0.38511902    -0.75000
O301        O  0.10679476  0.40518502  0.34799261    -0.74900
O302        O  0.01851190  0.34813299  0.36025651    -0.75000
Ni303      Ni  0.07689815  0.34737075  0.38394964     1.25400
Ni304      Ni  0.06258394  0.37725331  0.35373495     1.25400
C305        C  0.00904801  0.32396128  0.37583933     0.87300
C306        C  0.12868117  0.40062240  0.35799257     0.87200
C307        C  0.07315250  0.39756341  0.40868747     0.87200
C308        C  0.06633807  0.32501191  0.33105146     0.87400
O309        O  0.19642864  0.03523887  0.47220576    -0.74900
O310        O  0.28869946  0.06866237  0.45850334    -0.75000
O311        O  0.24231913  0.07795824  0.43775591    -0.75000
O312        O  0.24513834  0.02866016  0.49602032    -0.75100
O313        O  0.23181318  0.48683977  0.46846124    -0.75000
O314        O  0.22771109  0.03728345  0.40860450    -0.75000
O315        O  0.27348325  0.02612526  0.43133393    -0.74900
O316        O  0.18520017  0.99488632  0.44360323    -0.75000
Ni317      Ni  0.24358770  0.05404532  0.46728508     1.25400
Ni318      Ni  0.22927218  0.00984171  0.43707925     1.25400
C319        C  0.17573694  0.00959821  0.45918093     0.87300
C320        C  0.29536993  0.05257756  0.44132924     0.87200
C321        C  0.23302042  0.06583025  0.41438362     0.87200
C322        C  0.23984483  0.00011190  0.49203466     0.87400
O323        O  0.11995322  0.49700023  0.45150387    -0.74900
O324        O  0.02767888  0.43816097  0.46520327    -0.75000
O325        O  0.07406490  0.49383652  0.48594925    -0.75000
O326        O  0.07123793  0.44171281  0.42769058    -0.75100
O327        O  0.08454441  0.41321436  0.45524718    -0.75000
O328        O  0.08865829  0.46776170  0.01510652    -0.75000
O329        O  0.04288572  0.41083248  0.49237404    -0.74900
O330        O  0.13117218  0.46787450  0.48011388    -0.75000
Ni331      Ni  0.07279277  0.46865203  0.45642288     1.25400
Ni332      Ni  0.08709797  0.43875901  0.48663365     1.25400
C333        C  0.14064048  0.49204923  0.46453299     0.87300
C334        C  0.02100198  0.41540209  0.48237701     0.87200
C335        C  0.08336850  0.99100888  0.00933593     0.87200
C336        C  0.07652732  0.41845618  0.43167943     0.87400
O337        O  0.33051625  0.28648599  0.47220270    -0.74900
O338        O  0.27170245  0.19422117  0.45851627    -0.75000
O339        O  0.32735671  0.24060326  0.43775651    -0.75000
O340        O  0.27524616  0.23777741  0.49602248    -0.75100
O341        O  0.24668935  0.25102246  0.46846717    -0.75000
O342        O  0.30122971  0.25514647  0.40860314    -0.75000
O343        O  0.24432019  0.20936901  0.43134259    -0.74900
O344        O  0.30133438  0.29765457  0.44360201    -0.75000
Ni345      Ni  0.30218193  0.23933378  0.46728804     1.25400
Ni346      Ni  0.27223005  0.25357998  0.43708036     1.25400
C347        C  0.32553235  0.30714618  0.45917746     0.87300
C348        C  0.24892091  0.18751472  0.44134500     0.87200
C349        C  0.32449353  0.24986622  0.41438030     0.87200
C350        C  0.25195867  0.24303061  0.49203353     0.87400
O351        O  0.36872487  0.36290388  0.45152812    -0.74900
O352        O  0.40216561  0.45515495  0.46523173    -0.75000
O353        O  0.41146022  0.40879445  0.48599078    -0.75000
O354        O  0.36214719  0.41159237  0.42770852    -0.75100
O355        O  0.32033568  0.39831882  0.45524826    -0.75000
O356        O  0.37076961  0.39418856  0.01512326    -0.75000
O357        O  0.35963078  0.43996056  0.49239922    -0.74900
O358        O  0.32835180  0.35169448  0.48010190    -0.75000
Ni359      Ni  0.38753982  0.41005148  0.45645193     1.25400
Ni360      Ni  0.34332661  0.39575804  0.48664121     1.25400
C361        C  0.34307077  0.34222518  0.46453640     0.87300
C362        C  0.38608534  0.46183626  0.48240179     0.87200
C363        C  0.39932484  0.39949516  0.00935599     0.87200
C364        C  0.33359813  0.40632134  0.43168664     0.87400
O365        O  0.31918319  0.02953629  0.36818657    -0.74900
O366        O  0.37801164  0.12179737  0.38187218    -0.75000
O367        O  0.37445922  0.07823628  0.34436764    -0.75000
O368        O  0.32235224  0.07542301  0.40263320    -0.75100
O369        O  0.34847232  0.06087118  0.43178617    -0.75000
O370        O  0.40301020  0.06498456  0.37192365    -0.75000
O371        O  0.40538633  0.10664237  0.40904786    -0.74900
O372        O  0.34835901  0.01835959  0.39678743    -0.75000
Ni373      Ni  0.34752530  0.07668669  0.37310135     1.25400
Ni374      Ni  0.37747004  0.06243230  0.40330957     1.25400
C375        C  0.32416136  0.00887235  0.38121155     0.87300
C376        C  0.40079184  0.12850021  0.39904434     0.87200
C377        C  0.39774380  0.07297812  0.34835657     0.87200
C378        C  0.32521203  0.06615678  0.42600867     0.87400
O379        O  0.28095922  0.45312050  0.38884967    -0.74900
O380        O  0.24751713  0.36086923  0.37514336    -0.75000
O381        O  0.28753445  0.40443041  0.41266747    -0.75000
O382        O  0.23822289  0.40723105  0.35438499    -0.75100
O383        O  0.27891316  0.42183565  0.32525258    -0.75000
O384        O  0.32934700  0.41770637  0.38512833    -0.75000
O385        O  0.29005358  0.37606480  0.34797771    -0.74900
O386        O  0.32133092  0.46433006  0.36027443    -0.75000
Ni387      Ni  0.26214274  0.40597263  0.38392412     1.25400
Ni388      Ni  0.30635635  0.42026680  0.35373512     1.25400
C389        C  0.30661376  0.47379853  0.37584213     0.87300
C390        C  0.26359996  0.35418901  0.35797460     0.87200
C391        C  0.31608430  0.40970265  0.40868942     0.87200
C392        C  0.25035866  0.41652970  0.33101981     0.87400
O393        O  0.49719973  0.11981346  0.30553962    -0.74900
O394        O  0.43837731  0.02755248  0.29184477    -0.75000
O395        O  0.49403756  0.07393354  0.27108833    -0.75000
O396        O  0.44192446  0.07110675  0.32935453    -0.75100
O397        O  0.41337379  0.08436049  0.30180014    -0.75000
O398        O  0.46791615  0.08848559  0.24193691    -0.75000
O399        O  0.41100188  0.04270932  0.26467187    -0.74900
O400        O  0.46802337  0.13099026  0.27693952    -0.75000
Ni401      Ni  0.46886118  0.07266282  0.30062024     1.25400
Ni402      Ni  0.43891576  0.08691846  0.27041378     1.25400
C403        C  0.49222023  0.14047688  0.29251697     0.87300
C404        C  0.41559690  0.02085099  0.27467333     0.87200
C405        C  0.99117829  0.08320306  0.24771289     0.87200
C406        C  0.41863979  0.07636487  0.32536594     0.87400
O407        O  0.03541180  0.19623516  0.28487219    -0.74900
O408        O  0.06883983  0.28848403  0.29857464    -0.75000
O409        O  0.07814318  0.24212883  0.31933599    -0.75000
O410        O  0.02882612  0.24491846  0.26105243    -0.75100
O411        O  0.48701296  0.23164018  0.28859132    -0.75000
O412        O  0.03745068  0.22751733  0.34846728    -0.75000
O413        O  0.02630386  0.27328409  0.32574180    -0.74900
O414        O  0.99503716  0.18502067  0.31344567    -0.75000
Ni415      Ni  0.05422093  0.24338183  0.28979610     1.25400
Ni416      Ni  0.01000583  0.22908268  0.31998466     1.25400
C417        C  0.00975828  0.17555459  0.29787957     0.87300
C418        C  0.05275539  0.29516158  0.31574305     0.87200
C419        C  0.06600703  0.23282705  0.34270046     0.87200
C420        C  0.00027623  0.23964510  0.26503075     0.87400
O421        O  0.44764036  0.28645124  0.22219090    -0.74900
O422        O  0.41419791  0.19420120  0.20848375    -0.75000
O423        O  0.45421423  0.23775925  0.24601008    -0.75000
O424        O  0.40490869  0.24056565  0.18772366    -0.75100
O425        O  0.44560253  0.25517121  0.15859471    -0.75000
O426        O  0.49602780  0.25103323  0.21847273    -0.75000
O427        O  0.45673504  0.20939510  0.18131918    -0.74900
O428        O  0.48801634  0.29766137  0.19362030    -0.75000
Ni429      Ni  0.42882471  0.23930416  0.21726494     1.25400
Ni430      Ni  0.47304081  0.25359783  0.18707885     1.25400
C431        C  0.47329497  0.30712957  0.20918467     0.87300
C432        C  0.43028005  0.18752060  0.19131490     0.87200
C433        C  0.48276308  0.24302881  0.24203294     0.87200
C434        C  0.41704673  0.24986635  0.16435999     0.87400
O435        O  0.48584664  0.36286832  0.20151946    -0.74900
O436        O  0.04465721  0.45513409  0.21520643    -0.75000
O437        O  0.04111574  0.41157898  0.17770063    -0.75000
O438        O  0.48900263  0.40874966  0.23596565    -0.75100
O439        O  0.01512866  0.39420588  0.26511933    -0.75000
O440        O  0.06967426  0.39833674  0.20525656    -0.75000
O441        O  0.07203852  0.43998725  0.24238208    -0.74900
O442        O  0.01503009  0.35170125  0.23011959    -0.75000
Ni443      Ni  0.01417895  0.41002082  0.20643457     1.25400
Ni444      Ni  0.04413126  0.39577598  0.23664278     1.25400
C445        C  0.49083222  0.34220930  0.21454360     0.87300
C446        C  0.06743857  0.46184091  0.23237804     0.87200
C447        C  0.06440484  0.40632813  0.18168973     0.87200
C448        C  0.49186546  0.39948535  0.25934198     0.87400
O449        O  0.20208005  0.02958111  0.11820666    -0.74900
O450        O  0.23551933  0.12183197  0.13191004    -0.75000
O451        O  0.24481496  0.07547144  0.15267071    -0.75000
O452        O  0.19550058  0.07826857  0.09438781    -0.75100
O453        O  0.15368863  0.06499275  0.12192775    -0.75000
O454        O  0.20412407  0.06086597  0.18180272    -0.75000
O455        O  0.19298426  0.10663713  0.15907717    -0.74900
O456        O  0.16170784  0.01837053  0.14678156    -0.75000
Ni457      Ni  0.22089435  0.07672857  0.12313096     1.25400
Ni458      Ni  0.17668106  0.06243426  0.15332041     1.25400
C459        C  0.17642629  0.00890264  0.13121488     0.87300
C460        C  0.21943823  0.12851292  0.14907895     0.87200
C461        C  0.23267943  0.06617133  0.17603522     0.87200
C462        C  0.16694968  0.07299501  0.09836584     0.87400
O463        O  0.16386060  0.45316356  0.13887035    -0.74900
O464        O  0.10503464  0.36090141  0.12518147    -0.75000
O465        O  0.16069369  0.40727684  0.10442365    -0.75000
O466        O  0.10858608  0.40446051  0.16268819    -0.75100
O467        O  0.08003467  0.41771224  0.13513295    -0.75000
O468        O  0.13457375  0.42182797  0.07526983    -0.75000
O469        O  0.07765955  0.37605724  0.09800704    -0.74900
O470        O  0.13468458  0.46433902  0.11026891    -0.75000
Ni471      Ni  0.13552016  0.40601210  0.13395443     1.25400
Ni472      Ni  0.10557521  0.42026639  0.10374623     1.25400
C473        C  0.15888117  0.47382619  0.12584598     0.87300
C474        C  0.08225422  0.35419912  0.10800906     0.87200
C475        C  0.15783375  0.41654135  0.08104782     0.87200
C476        C  0.08530186  0.40971783  0.15869873     0.87400
O477        O  0.11429605  0.11977918  0.05552755    -0.74900
O478        O  0.08086876  0.02753150  0.04181940    -0.75000
O479        O  0.12088211  0.07109481  0.07934559    -0.75000
O480        O  0.07156710  0.07388838  0.02106104    -0.75100
O481        O  0.11226052  0.08849887  0.49193072    -0.75000
O482        O  0.16269703  0.08437811  0.05180755    -0.75000
O483        O  0.12340787  0.04273287  0.01465578    -0.74900
O484        O  0.15467058  0.13099592  0.02695353    -0.75000
Ni485      Ni  0.09548774  0.07263289  0.05060136     1.25400
Ni486      Ni  0.13970428  0.08693408  0.02041396     1.25400
C487        C  0.13994893  0.14046013  0.04251932     0.87300
C488        C  0.09695334  0.02085528  0.02465059     0.87200
C489        C  0.14943336  0.07637248  0.07536835     0.87200
C490        C  0.08370450  0.08319013  0.99769704     0.87400
O491        O  0.15250568  0.19620116  0.03485603    -0.74900
O492        O  0.21133396  0.28846423  0.04853838    -0.75000
O493        O  0.20777881  0.24490107  0.01103517    -0.75000
O494        O  0.15567488  0.24209150  0.06930029    -0.75100
O495        O  0.18179562  0.22754223  0.09845468    -0.75000
O496        O  0.23633034  0.23164985  0.03859090    -0.75000
O497        O  0.23870991  0.27330967  0.07571289    -0.74900
O498        O  0.18168185  0.18502738  0.06345888    -0.75000
Ni499      Ni  0.18084673  0.24335281  0.03976893     1.25400
Ni500      Ni  0.21079233  0.22910011  0.06997786     1.25400
C501        C  0.15748495  0.17553873  0.04788143     0.87300
C502        C  0.23411566  0.29516703  0.06570896     0.87200
C503        C  0.23106315  0.23964293  0.01502480     0.87200
C504        C  0.15853562  0.23282809  0.09267618     0.87400
O505        O  0.36872536  0.49700217  0.70153126    -0.74900
O506        O  0.40217237  0.43819899  0.71523826    -0.75000
O507        O  0.36215428  0.44173942  0.67771331    -0.75000
O508        O  0.41146080  0.49385128  0.73599681    -0.75100
O509        O  0.37076903  0.46775968  0.76512779    -0.75000
O510        O  0.32034218  0.41319357  0.70525180    -0.75000
O511        O  0.35963739  0.41085169  0.74240500    -0.74900
O512        O  0.32835086  0.46783108  0.73010294    -0.75000
Ni513      Ni  0.38754361  0.46867359  0.70645711     1.25400
Ni514      Ni  0.34332936  0.43874602  0.73664497     1.25400
C515        C  0.34306920  0.49202111  0.71453729     0.87300
C516        C  0.38609175  0.41543463  0.73240823     0.87200
C517        C  0.33360588  0.41845701  0.68169115     0.87200
C518        C  0.39933962  0.99100374  0.75935962     0.87400
O519        O  0.33052918  0.03520330  0.72220342    -0.74900
O520        O  0.27171473  0.06865033  0.70851743    -0.75000
O521        O  0.27525926  0.02863688  0.74602333    -0.75000
O522        O  0.32736804  0.07792665  0.68775594    -0.75100
O523        O  0.30124250  0.03725394  0.65860476    -0.75000
O524        O  0.24668507  0.48684045  0.71846354    -0.75000
O525        O  0.24433404  0.02612181  0.68134174    -0.74900
O526        O  0.30134430  0.99484922  0.69360672    -0.75000
Ni527      Ni  0.30219439  0.05401900  0.71728846     1.25400
Ni528      Ni  0.27224160  0.00981969  0.68708214     1.25400
C529        C  0.32554441  0.00955901  0.70918095     0.87300
C530        C  0.24893325  0.05257574  0.69134518     0.87200
C531        C  0.25196941  0.00009605  0.74203443     0.87200
C532        C  0.32450515  0.06579941  0.66438027     0.87400
O533        O  0.48585656  0.11415788  0.95152112    -0.74900
O534        O  0.04466808  0.08070880  0.96521423    -0.75000
O535        O  0.48901401  0.07143562  0.98597256    -0.75000
O536        O  0.04112562  0.12071939  0.92770446    -0.75100
O537        O  0.06968736  0.16252272  0.95525715    -0.75000
O538        O  0.01513808  0.11211074  0.51512164    -0.75000
O539        O  0.07204764  0.12323823  0.99238906    -0.74900
O540        O  0.01504277  0.15451490  0.98011503    -0.75000
Ni541      Ni  0.01418948  0.09534065  0.95643970     1.25400
Ni542      Ni  0.04414232  0.13954201  0.98664409     1.25400
C543        C  0.49084277  0.13980455  0.96454030     0.87300
C544        C  0.06744848  0.09678437  0.98238639     0.87200
C545        C  0.49187542  0.08356470  0.50934633     0.87200
C546        C  0.06441667  0.14926019  0.93169218     0.87400
O547        O  0.44764782  0.15236265  0.97218555    -0.74900
O548        O  0.41419806  0.21116263  0.95847804    -0.75000
O549        O  0.40491130  0.15551016  0.93772005    -0.75000
O550        O  0.45421983  0.20762677  0.99600200    -0.75100
O551        O  0.49603024  0.23617251  0.96846212    -0.75000
O552        O  0.44560228  0.18160158  0.90858838    -0.75000
O553        O  0.45673114  0.23850964  0.93130915    -0.74900
O554        O  0.48802185  0.18153369  0.94361344    -0.75000
Ni555      Ni  0.42882879  0.18069002  0.96725920     1.25400
Ni556      Ni  0.47304175  0.21061743  0.93707016     1.25400
C557        C  0.47330345  0.15734346  0.95917966     0.87300
C558        C  0.43027612  0.23392641  0.94130706     0.87200
C559        C  0.41704843  0.15834936  0.91435536     0.87200
C560        C  0.48276688  0.23090865  0.99202332     0.87400
O561        O  0.11428963  0.48569066  0.80551649    -0.74900
O562        O  0.08087619  0.04450673  0.79180980    -0.75000
O563        O  0.07155856  0.48885377  0.77105282    -0.75000
O564        O  0.12088958  0.04095587  0.82933289    -0.75100
O565        O  0.16270313  0.06949501  0.80179406    -0.75000
O566        O  0.11226701  0.01493324  0.74191943    -0.75000
O567        O  0.12341187  0.07184648  0.76464208    -0.74900
O568        O  0.15467983  0.01485198  0.77694353    -0.75000
Ni569      Ni  0.09549508  0.01402443  0.80058983     1.25400
Ni570      Ni  0.13971074  0.04394434  0.77040158     1.25400
C571        C  0.13994264  0.49066535  0.79250874     0.87300
C572        C  0.09695986  0.06727022  0.77463989     0.87200
C573        C  0.08369477  0.49169186  0.74768744     0.87200
C574        C  0.14944002  0.06423370  0.82535539     0.87400
O575        O  0.15249777  0.44748171  0.78484901    -0.74900
O576        O  0.21131990  0.41404388  0.79853774    -0.75000
O577        O  0.15566294  0.40476065  0.81929787    -0.75000
O578        O  0.20776999  0.45405339  0.76103111    -0.75100
O579        O  0.23632623  0.49585653  0.78858546    -0.75000
O580        O  0.18178456  0.44543393  0.84844918    -0.75000
O581        O  0.23869647  0.45657372  0.82571269    -0.74900
O582        O  0.18167825  0.48783578  0.81344696    -0.75000
Ni583      Ni  0.18083597  0.42866994  0.78976552     1.25400
Ni584      Ni  0.21078439  0.47287018  0.81997187     1.25400
C585        C  0.15748039  0.47312548  0.79787085     0.87300
C586        C  0.23410042  0.43012128  0.81570899     0.87200
C587        C  0.15852350  0.41688701  0.84267273     0.87200
C588        C  0.23105764  0.48259496  0.76501922     0.87400
O589        O  0.20208071  0.16366933  0.86819962    -0.74900
O590        O  0.23551682  0.10485730  0.88190436    -0.75000
O591        O  0.19550448  0.10840598  0.84437785    -0.75000
O592        O  0.24480892  0.16050888  0.90266828    -0.75100
O593        O  0.20411302  0.13441479  0.93179513    -0.75000
O594        O  0.15368867  0.07986211  0.87191326    -0.75000
O595        O  0.19297679  0.07750792  0.90906595    -0.74900
O596        O  0.16170325  0.13449884  0.89676895    -0.75000
Ni597      Ni  0.22089355  0.13533604  0.87312484     1.25400
Ni598      Ni  0.17667510  0.10540791  0.90330876     1.25400
C599        C  0.17642415  0.15868929  0.88120513     0.87300
C600        C  0.21943324  0.08209070  0.89907121     0.87200
C601        C  0.16695386  0.08512645  0.84835360     0.87200
C602        C  0.23266868  0.15766667  0.92603198     0.87400
O603        O  0.16387108  0.20187518  0.88886359    -0.74900
O604        O  0.10504842  0.23531325  0.87517990    -0.75000
O605        O  0.10860246  0.19530640  0.91268692    -0.75000
O606        O  0.16070129  0.24459369  0.85441414    -0.75100
O607        O  0.13457623  0.20391793  0.82526586    -0.75000
O608        O  0.08004154  0.15350181  0.88513519    -0.75000
O609        O  0.07766795  0.19278183  0.84800711    -0.74900
O610        O  0.13468550  0.16151796  0.86026975    -0.75000
Ni611      Ni  0.13553257  0.22068705  0.88394943     1.25400
Ni612      Ni  0.10557961  0.17648451  0.85374624     1.25400
C613        C  0.15888622  0.17622995  0.87584350     0.87300
C614        C  0.08226515  0.21923534  0.85801001     0.87200
C615        C  0.08531348  0.16676506  0.90870044     0.87200
C616        C  0.15783708  0.23246528  0.83104008     0.87400
O617        O  0.31918743  0.28081648  0.61818582    -0.74900
O618        O  0.37801146  0.24738154  0.63187565    -0.75000
O619        O  0.32235662  0.23810054  0.65263802    -0.75000
O620        O  0.37445827  0.28738682  0.59436558    -0.75100
O621        O  0.40301718  0.32919301  0.62191635    -0.75000
O622        O  0.34847955  0.27877863  0.68178475    -0.75000
O623        O  0.40538986  0.28991389  0.65904777    -0.74900
O624        O  0.34837142  0.32117610  0.64677817    -0.75000
Ni625      Ni  0.34752698  0.26200648  0.62310291     1.25400
Ni626      Ni  0.37747789  0.30621083  0.65330498     1.25400
C627        C  0.32417064  0.30646274  0.63120506     0.87300
C628        C  0.40079204  0.26345936  0.64904662     0.87200
C629        C  0.32521813  0.25023092  0.67601128     0.87200
C630        C  0.39774616  0.31593057  0.59835141     0.87400
O631        O  0.28097272  0.31901796  0.63884995    -0.74900
O632        O  0.24752921  0.37782531  0.62514833    -0.75000
O633        O  0.23823759  0.32217402  0.60438584    -0.75000
O634        O  0.28754654  0.37428011  0.66267121    -0.75100
O635        O  0.32935864  0.40282591  0.63513289    -0.75000
O636        O  0.27892915  0.34826638  0.57525483    -0.75000
O637        O  0.29006479  0.40517381  0.59798226    -0.74900
O638        O  0.32134640  0.34818896  0.61027775    -0.75000
Ni639      Ni  0.26215596  0.34734856  0.63392648     1.25400
Ni640      Ni  0.30637005  0.37727663  0.60373878     1.25400
C641        C  0.30662861  0.32399929  0.62584329     0.87300
C642        C  0.26361029  0.40059149  0.60797964     0.87200
C643        C  0.25037325  0.32501500  0.58102077     0.87200
C644        C  0.31609435  0.39756138  0.65869356     0.87400
O645        O  0.03540820  0.33035008  0.53486142    -0.74900
O646        O  0.06884296  0.27153780  0.54857233    -0.75000
O647        O  0.02883043  0.27508436  0.51104438    -0.75000
O648        O  0.07813674  0.32719232  0.56933161    -0.75100
O649        O  0.03744192  0.30110163  0.59846000    -0.75000
O650        O  0.48701517  0.24654293  0.53858099    -0.75000
O651        O  0.02630403  0.24419239  0.57573570    -0.74900
O652        O  0.99503143  0.30118295  0.56343241    -0.75000
Ni653      Ni  0.05422035  0.30201676  0.53978981     1.25400
Ni654      Ni  0.01000267  0.27209224  0.56997520     1.25400
C655        C  0.00975165  0.32537186  0.54786643     0.87300
C656        C  0.05275938  0.24877276  0.56574102     0.87200
C657        C  0.00028023  0.25180501  0.51502081     0.87200
C658        C  0.06599796  0.32435184  0.59269603     0.87400
O659        O  0.49719573  0.36855587  0.55552156    -0.74900
O660        O  0.43836618  0.40198518  0.54183619    -0.75000
O661        O  0.44192482  0.36198123  0.57934387    -0.75000
O662        O  0.49402202  0.41127138  0.52107077    -0.75100
O663        O  0.46789976  0.37059344  0.99192377    -0.75000
O664        O  0.41336724  0.32017483  0.55179296    -0.75000
O665        O  0.41098879  0.35945245  0.51466424    -0.74900
O666        O  0.46801321  0.32819700  0.52692816    -0.75000
Ni667      Ni  0.46885386  0.38736353  0.55060622     1.25400
Ni668      Ni  0.43890401  0.34315910  0.52040392     1.25400
C669        C  0.49221305  0.34291042  0.54250215     0.87300
C670        C  0.41558412  0.38590527  0.52466675     0.87200
C671        C  0.41863867  0.33343786  0.57535851     0.87200
C672        C  0.99116024  0.39914138  0.49769700     0.87400
O673        O  0.28661162  0.44744594  0.53484742    -0.74900
O674        O  0.19434265  0.41402959  0.54855341    -0.75000
O675        O  0.23790446  0.45403009  0.51103678    -0.75000
O676        O  0.24072056  0.40472624  0.56929777    -0.75100
O677        O  0.25533262  0.44539998  0.59845088    -0.75000
O678        O  0.25122153  0.49583888  0.53859023    -0.75000
O679        O  0.20956419  0.45656694  0.57572366    -0.74900
O680        O  0.29784416  0.48779706  0.56345289    -0.75000
Ni681      Ni  0.23945332  0.42864230  0.53977022     1.25400
Ni682      Ni  0.25377376  0.47284549  0.56997776     1.25400
C683        C  0.30730502  0.47308616  0.54787253     0.87300
C684        C  0.18767478  0.43011601  0.56572691     0.87200
C685        C  0.24320097  0.48257850  0.51502320     0.87200
C686        C  0.25002153  0.41685350  0.59267067     0.87400
O687        O  0.36307957  0.48568352  0.55553363    -0.74900
O688        O  0.45536203  0.04454550  0.54184176    -0.75000
O689        O  0.41179972  0.04098542  0.57935432    -0.75000
O690        O  0.40897104  0.48885810  0.52108599    -0.75100
O691        O  0.39437786  0.01492989  0.99194049    -0.75000
O692        O  0.39848610  0.06947837  0.55179782    -0.75000
O693        O  0.44014671  0.07186524  0.51466895    -0.74900
O694        O  0.35186354  0.01481173  0.52693456    -0.75000
Ni695      Ni  0.41025053  0.01404799  0.55062298     1.25400
Ni696      Ni  0.39593562  0.04393311  0.52041205     1.25400
C697        C  0.34238796  0.49062879  0.54250629     0.87300
C698        C  0.46203379  0.06730182  0.52466672     0.87200
C699        C  0.40650458  0.06423903  0.57536570     0.87200
C700        C  0.39967301  0.49168564  0.49771212     0.87400
O701        O  0.45328637  0.16367524  0.61818341    -0.74900
O702        O  0.36101639  0.10481934  0.63188472    -0.75000
O703        O  0.40739431  0.16049990  0.65263055    -0.75000
O704        O  0.40457951  0.10838212  0.59437100    -0.75100
O705        O  0.41789437  0.07988932  0.62192640    -0.75000
O706        O  0.42200018  0.13443376  0.68178569    -0.75000
O707        O  0.37623304  0.07749939  0.65905590    -0.74900
O708        O  0.46451563  0.13455543  0.64679142    -0.75000
Ni709      Ni  0.40612772  0.13531814  0.62310359     1.25400
Ni710      Ni  0.42044387  0.10543271  0.65331316     1.25400
C711        C  0.47397733  0.15872935  0.63121119     0.87300
C712        C  0.35434621  0.08206326  0.64905935     0.87200
C713        C  0.41669176  0.15767124  0.67600423     0.87200
C714        C  0.40987558  0.08512910  0.59835931     0.87400
O715        O  0.02975238  0.20191200  0.63887445    -0.74900
O716        O  0.12202311  0.23533591  0.62517067    -0.75000
O717        O  0.07564259  0.24463509  0.60442628    -0.75000
O718        O  0.07846202  0.19533096  0.66268573    -0.75100
O719        O  0.06514811  0.15352419  0.63513067    -0.75000
O720        O  0.06103659  0.20396385  0.57527135    -0.75000
O721        O  0.10680569  0.19279984  0.59799959    -0.74900
O722        O  0.01852396  0.16156398  0.61026691    -0.75000
Ni723      Ni  0.07691144  0.22071899  0.63395299     1.25400
Ni724      Ni  0.06259558  0.17651834  0.60374381     1.25400
C725        C  0.00906165  0.17627341  0.62584725     0.87300
C726        C  0.12869419  0.21925149  0.60799642     0.87200
C727        C  0.06634504  0.23251071  0.58105249     0.87200
C728        C  0.07316810  0.16678286  0.65869814     0.87400
O729        O  0.11996481  0.11413832  0.70151032    -0.74900
O730        O  0.02769324  0.08070642  0.71521587    -0.75000
O731        O  0.07125229  0.12071704  0.67770169    -0.75000
O732        O  0.07407705  0.07141145  0.73595640    -0.75100
O733        O  0.08868240  0.11208021  0.76511387    -0.75000
O734        O  0.08456141  0.16252087  0.70525898    -0.75000
O735        O  0.04290684  0.12323813  0.74239111    -0.74900
O736        O  0.13119140  0.15448546  0.73011837    -0.75000
Ni737      Ni  0.07280570  0.09532838  0.70643215     1.25400
Ni738      Ni  0.08711859  0.13952607  0.73664398     1.25400
C739        C  0.14065521  0.13977645  0.71453787     0.87300
C740        C  0.02102123  0.09678619  0.73239329     0.87200
C741        C  0.07654322  0.14926422  0.68169120     0.87200
C742        C  0.08337490  0.08353475  0.75933069     0.87400
O743        O  0.19642812  0.15236941  0.72220610    -0.74900
O744        O  0.28870164  0.21121389  0.70850725    -0.75000
O745        O  0.24513918  0.20765962  0.74601758    -0.75000
O746        O  0.24231975  0.15553490  0.68776343    -0.75100
O747        O  0.22772074  0.18160263  0.65860389    -0.75000
O748        O  0.23183020  0.23615445  0.71845909    -0.75000
O749        O  0.27349145  0.23853654  0.68133280    -0.74900
O750        O  0.18520583  0.18149095  0.69359428    -0.75000
Ni751      Ni  0.24358843  0.18072042  0.71728747     1.25400
Ni752      Ni  0.22927947  0.21060807  0.68707393     1.25400
C753        C  0.17574033  0.15731817  0.70917645     0.87300
C754        C  0.29537632  0.23397057  0.69133133     0.87200
C755        C  0.23984580  0.23091337  0.74202734     0.87200
C756        C  0.23302521  0.15836289  0.66438805     0.87400
O757        O  0.28661852  0.33034564  0.78484543    -0.74900
O758        O  0.19434740  0.27148651  0.79854341    -0.75000
O759        O  0.24072131  0.32716839  0.81928944    -0.75000
O760        O  0.23791472  0.27505316  0.76103218    -0.75100
O761        O  0.25123207  0.24656327  0.78858885    -0.75000
O762        O  0.25532466  0.30110296  0.84844757    -0.75000
O763        O  0.20956502  0.24416709  0.82571434    -0.74900
O764        O  0.29784696  0.30122909  0.81345771    -0.75000
Ni765      Ni  0.23945904  0.30198747  0.78976379     1.25400
Ni766      Ni  0.25377515  0.27210398  0.81997561     1.25400
C767        C  0.30730873  0.32540027  0.79787520     0.87300
C768        C  0.18767701  0.24872986  0.81571711     0.87200
C769        C  0.25001501  0.32433997  0.84266464     0.87200
C770        C  0.24321391  0.25180252  0.76502114     0.87400
O771        O  0.36308580  0.36857819  0.80553872    -0.74900
O772        O  0.45535484  0.40199195  0.79183740    -0.75000
O773        O  0.40897967  0.41129813  0.77109156    -0.75000
O774        O  0.41178922  0.36198802  0.82935083    -0.75100
O775        O  0.39847141  0.32018079  0.80179525    -0.75000
O776        O  0.39437055  0.37062651  0.74193641    -0.75000
O777        O  0.44013496  0.35945591  0.76466593    -0.74900
O778        O  0.35185342  0.32822969  0.77693049    -0.75000
Ni779      Ni  0.41024390  0.38737946  0.80061844     1.25400
Ni780      Ni  0.39592453  0.34317853  0.77040871     1.25400
C781        C  0.34239302  0.34294131  0.79251066     0.87300
C782        C  0.46202408  0.38590762  0.77466317     0.87200
C783        C  0.39968084  0.39917358  0.74771750     0.87200
C784        C  0.40649088  0.33343788  0.82536292     0.87400
O785        O  0.45327235  0.28078240  0.86817673    -0.74900
O786        O  0.36100341  0.24736126  0.88188310    -0.75000
O787        O  0.40456402  0.28736736  0.84436805    -0.75000
O788        O  0.40738381  0.23806020  0.90262545    -0.75100
O789        O  0.42199284  0.27873167  0.93178061    -0.75000
O790        O  0.41788031  0.32917388  0.87192399    -0.75000
O791        O  0.37622234  0.28989641  0.90905547    -0.74900
O792        O  0.46450390  0.32113098  0.89678475    -0.75000
Ni793      Ni  0.40611432  0.26197743  0.87309951     1.25400
Ni794      Ni  0.42043276  0.30617790  0.90330954     1.25400
C795        C  0.47396543  0.30642062  0.88120385     0.87300
C796        C  0.35433405  0.26344516  0.89905876     0.87200
C797        C  0.40986062  0.31591647  0.84835644     0.87200
C798        C  0.41668488  0.25018593  0.92599857     0.87400
O799        O  0.02973885  0.31901580  0.88886917    -0.74900
O800        O  0.12201021  0.37786831  0.87516876    -0.75000
O801        O  0.07844595  0.37430926  0.91267826    -0.75000
O802        O  0.07563297  0.32218587  0.85442693    -0.75100
O803        O  0.06102839  0.34824805  0.82526622    -0.75000
O804        O  0.06513380  0.40280113  0.88511898    -0.75000
O805        O  0.10679474  0.40518501  0.84799254    -0.74900
O806        O  0.01851178  0.34813303  0.86025640    -0.75000
Ni807      Ni  0.07689809  0.34737072  0.88394967     1.25400
Ni808      Ni  0.06258396  0.37725334  0.85373491     1.25400
C809        C  0.00904862  0.32396119  0.87583968     0.87300
C810        C  0.12868118  0.40062241  0.85799251     0.87200
C811        C  0.07315250  0.39756346  0.90868746     0.87200
C812        C  0.06633775  0.32501175  0.83105085     0.87400
O813        O  0.19642864  0.03523885  0.97220572    -0.74900
O814        O  0.28869949  0.06866237  0.95850330    -0.75000
O815        O  0.24231916  0.07795825  0.93775587    -0.75000
O816        O  0.24513837  0.02866021  0.99602027    -0.75100
O817        O  0.23181317  0.48683982  0.96846104    -0.75000
O818        O  0.22771111  0.03728347  0.90860446    -0.75000
O819        O  0.27348329  0.02612527  0.93133389    -0.74900
O820        O  0.18520018  0.99488630  0.94360320    -0.75000
Ni821      Ni  0.24358773  0.05404533  0.96728504     1.25400
Ni822      Ni  0.22927222  0.00984171  0.93707922     1.25400
C823        C  0.17573695  0.00959818  0.95918092     0.87300
C824        C  0.29536996  0.05257757  0.94132921     0.87200
C825        C  0.23302037  0.06583023  0.91438360     0.87200
C826        C  0.23984485  0.00011191  0.99203465     0.87400
O827        O  0.11995318  0.49700029  0.95150398    -0.74900
O828        O  0.02767879  0.43816095  0.96520329    -0.75000
O829        O  0.07406497  0.49383648  0.98594939    -0.75000
O830        O  0.07123798  0.44171292  0.92769060    -0.75100
O831        O  0.08454432  0.41321433  0.95524723    -0.75000
O832        O  0.08865831  0.46776189  0.51510641    -0.75000
O833        O  0.04288568  0.41083246  0.99237404    -0.74900
O834        O  0.13117208  0.46787439  0.98011390    -0.75000
Ni835      Ni  0.07279276  0.46865207  0.95642285     1.25400
Ni836      Ni  0.08709792  0.43875900  0.98663370     1.25400
C837        C  0.14064052  0.49204928  0.96453300     0.87300
C838        C  0.02100181  0.41540213  0.98237701     0.87200
C839        C  0.08336854  0.99100893  0.50933600     0.87200
C840        C  0.07652732  0.41845616  0.93167941     0.87400
O841        O  0.33051619  0.28648608  0.97220256    -0.74900
O842        O  0.27170226  0.19422112  0.95851614    -0.75000
O843        O  0.32735666  0.24060330  0.93775642    -0.75000
O844        O  0.27524618  0.23777744  0.99602225    -0.75100
O845        O  0.24668934  0.25102253  0.96846689    -0.75000
O846        O  0.30122963  0.25514644  0.90860309    -0.75000
O847        O  0.24432005  0.20936904  0.93134258    -0.74900
O848        O  0.30133418  0.29765453  0.94360192    -0.75000
Ni849      Ni  0.30218189  0.23933381  0.96728799     1.25400
Ni850      Ni  0.27223002  0.25357997  0.93708039     1.25400
C851        C  0.32553280  0.30714615  0.95917780     0.87300
C852        C  0.24892119  0.18751473  0.94134525     0.87200
C853        C  0.32449347  0.24986622  0.91438028     0.87200
C854        C  0.25195854  0.24303052  0.99203399     0.87400
O855        O  0.36872489  0.36290392  0.95152809    -0.74900
O856        O  0.40216561  0.45515488  0.96523163    -0.75000
O857        O  0.41146019  0.40879444  0.98599087    -0.75000
O858        O  0.36214712  0.41159237  0.92770840    -0.75100
O859        O  0.32033562  0.39831888  0.95524799    -0.75000
O860        O  0.37076972  0.39418857  0.51512329    -0.75000
O861        O  0.35963081  0.43996067  0.99239910    -0.74900
O862        O  0.32835176  0.35169446  0.98010179    -0.75000
Ni863      Ni  0.38753980  0.41005145  0.95645192     1.25400
Ni864      Ni  0.34332654  0.39575806  0.98664116     1.25400
C865        C  0.34307046  0.34222512  0.96453648     0.87300
C866        C  0.38608509  0.46183629  0.98240201     0.87200
C867        C  0.39932463  0.39949509  0.50935615     0.87200
C868        C  0.33359824  0.40632124  0.93168718     0.87400
O869        O  0.31918327  0.02953633  0.86818652    -0.74900
O870        O  0.37801166  0.12179736  0.88187213    -0.75000
O871        O  0.37445930  0.07823626  0.84436751    -0.75000
O872        O  0.32235228  0.07542305  0.90263316    -0.75100
O873        O  0.34847236  0.06087122  0.93178615    -0.75000
O874        O  0.40301023  0.06498456  0.87192355    -0.75000
O875        O  0.40538638  0.10664237  0.90904781    -0.74900
O876        O  0.34835911  0.01835965  0.89678741    -0.75000
Ni877      Ni  0.34752532  0.07668670  0.87310126     1.25400
Ni878      Ni  0.37747009  0.06243229  0.90330958     1.25400
C879        C  0.32416124  0.00887221  0.88121146     0.87300
C880        C  0.40079187  0.12850021  0.89904430     0.87200
C881        C  0.39774372  0.07297808  0.84835671     0.87200
C882        C  0.32521206  0.06615681  0.92600864     0.87400
O883        O  0.28095916  0.45312048  0.88884983    -0.74900
O884        O  0.24751717  0.36086925  0.87514344    -0.75000
O885        O  0.28753454  0.40443041  0.91266753    -0.75000
O886        O  0.23822294  0.40723108  0.85438509    -0.75100
O887        O  0.27891324  0.42183568  0.82525270    -0.75000
O888        O  0.32934709  0.41770641  0.88512830    -0.75000
O889        O  0.29005364  0.37606485  0.84797779    -0.74900
O890        O  0.32133087  0.46433012  0.86027463    -0.75000
Ni891      Ni  0.26214281  0.40597263  0.88392418     1.25400
Ni892      Ni  0.30635645  0.42026683  0.85373521     1.25400
C893        C  0.30661407  0.47379850  0.87584193     0.87300
C894        C  0.26359999  0.35418900  0.85797461     0.87200
C895        C  0.31608405  0.40970259  0.90868966     0.87200
C896        C  0.25035869  0.41652976  0.83101981     0.87400
O897        O  0.49719976  0.11981350  0.80553951    -0.74900
O898        O  0.43837723  0.02755242  0.79184466    -0.75000
O899        O  0.49403758  0.07393357  0.77108832    -0.75000
O900        O  0.44192450  0.07110677  0.82935450    -0.75100
O901        O  0.41337384  0.08436051  0.80180009    -0.75000
O902        O  0.46791618  0.08848559  0.74193688    -0.75000
O903        O  0.41100187  0.04270936  0.76467183    -0.74900
O904        O  0.46802336  0.13099027  0.77693944    -0.75000
Ni905      Ni  0.46886119  0.07266283  0.80062021     1.25400
Ni906      Ni  0.43891582  0.08691847  0.77041378     1.25400
C907        C  0.49222040  0.14047682  0.79251708     0.87300
C908        C  0.41559723  0.02085113  0.77467358     0.87200
C909        C  0.99117785  0.08320311  0.74771281     0.87200
C910        C  0.41863985  0.07636486  0.82536598     0.87400
O911        O  0.03541180  0.19623519  0.78487218    -0.74900
O912        O  0.06883976  0.28848410  0.79857477    -0.75000
O913        O  0.07814312  0.24212876  0.81933613    -0.75000
O914        O  0.02882614  0.24491846  0.76105251    -0.75100
O915        O  0.48701289  0.23164014  0.78859139    -0.75000
O916        O  0.03745055  0.22751725  0.84846733    -0.75000
O917        O  0.02630381  0.27328411  0.82574183    -0.74900
O918        O  0.99503717  0.18502067  0.81344567    -0.75000
Ni919      Ni  0.05422091  0.24338180  0.78979613     1.25400
Ni920      Ni  0.01000582  0.22908269  0.81998465     1.25400
C921        C  0.00975820  0.17555459  0.79787951     0.87300
C922        C  0.05275578  0.29516153  0.81574274     0.87200
C923        C  0.06600748  0.23282726  0.84270008     0.87200
C924        C  0.00027625  0.23964520  0.76503036     0.87400
O925        O  0.44764018  0.28645123  0.72219088    -0.74900
O926        O  0.41419790  0.19420124  0.70848359    -0.75000
O927        O  0.45421401  0.23775927  0.74601000    -0.75000
O928        O  0.40490848  0.24056554  0.68772391    -0.75100
O929        O  0.44560215  0.25517116  0.65859481    -0.75000
O930        O  0.49602769  0.25103321  0.71847265    -0.75000
O931        O  0.45673519  0.20939535  0.68131913    -0.74900
O932        O  0.48801624  0.29766147  0.69362041    -0.75000
Ni933      Ni  0.42882469  0.23930416  0.71726490     1.25400
Ni934      Ni  0.47304079  0.25359786  0.68707888     1.25400
C935        C  0.47329531  0.30712951  0.70918427     0.87300
C936        C  0.43027945  0.18752027  0.69131507     0.87200
C937        C  0.48276362  0.24302884  0.74203312     0.87200
C938        C  0.41704763  0.24986657  0.66435928     0.87400
O939        O  0.48584675  0.36286835  0.70151947    -0.74900
O940        O  0.04465728  0.45513407  0.71520646    -0.75000
O941        O  0.04111568  0.41157901  0.67770069    -0.75000
O942        O  0.48900266  0.40874963  0.73596560    -0.75100
O943        O  0.01512875  0.39420590  0.76511935    -0.75000
O944        O  0.06967419  0.39833671  0.70525675    -0.75000
O945        O  0.07203860  0.43998724  0.74238207    -0.74900
O946        O  0.01503018  0.35170127  0.73011959    -0.75000
Ni947      Ni  0.01417897  0.41002083  0.70643452     1.25400
Ni948      Ni  0.04413127  0.39577601  0.73664278     1.25400
C949        C  0.49083203  0.34220924  0.71454348     0.87300
C950        C  0.06743847  0.46184111  0.73237799     0.87200
C951        C  0.06440514  0.40632822  0.68168922     0.87200
C952        C  0.49186519  0.39948534  0.75934198     0.87400
O953        O  0.20208005  0.02958108  0.61820663    -0.74900
O954        O  0.23551945  0.12183186  0.63190982    -0.75000
O955        O  0.24481498  0.07547141  0.65267066    -0.75000
O956        O  0.19550042  0.07826860  0.59438771    -0.75100
O957        O  0.15368858  0.06499279  0.62192754    -0.75000
O958        O  0.20412411  0.06086598  0.68180268    -0.75000
O959        O  0.19298441  0.10663714  0.65907705    -0.74900
O960        O  0.16170789  0.01837059  0.64678154    -0.75000
Ni961      Ni  0.22089436  0.07672856  0.62313098     1.25400
Ni962      Ni  0.17668107  0.06243426  0.65332036     1.25400
C963        C  0.17642635  0.00890267  0.63121481     0.87300
C964        C  0.21943766  0.12851279  0.64907940     0.87200
C965        C  0.23267946  0.06617133  0.67603518     0.87200
C966        C  0.16695027  0.07299498  0.59836638     0.87400
O967        O  0.16386057  0.45316351  0.63887042    -0.74900
O968        O  0.10503431  0.36090131  0.62518139    -0.75000
O969        O  0.16069376  0.40727683  0.60442359    -0.75000
O970        O  0.10858618  0.40446046  0.66268815    -0.75100
O971        O  0.08003469  0.41771224  0.63513297    -0.75000
O972        O  0.13457401  0.42182801  0.57526975    -0.75000
O973        O  0.07765947  0.37605736  0.59800692    -0.74900
O974        O  0.13468468  0.46433907  0.61026891    -0.75000
Ni975      Ni  0.13552012  0.40601212  0.63395442     1.25400
Ni976      Ni  0.10557517  0.42026639  0.60374619     1.25400
C977        C  0.15888067  0.47382623  0.62584553     0.87300
C978        C  0.08225471  0.35419897  0.60800936     0.87200
C979        C  0.15783310  0.41654145  0.58104784     0.87200
C980        C  0.08530152  0.40971786  0.65869877     0.87400
O981        O  0.11429609  0.11977918  0.55552770    -0.74900
O982        O  0.08086870  0.02753162  0.54181961    -0.75000
O983        O  0.12088203  0.07109475  0.57934570    -0.75000
O984        O  0.07156720  0.07388847  0.52106099    -0.75100
O985        O  0.11226026  0.08849883  0.99193064    -0.75000
O986        O  0.16269701  0.08437809  0.55180767    -0.75000
O987        O  0.12340788  0.04273298  0.51465595    -0.74900
O988        O  0.15467062  0.13099579  0.52695360    -0.75000
Ni989      Ni  0.09548779  0.07263291  0.55060142     1.25400
Ni990      Ni  0.13970433  0.08693411  0.52041406     1.25400
C991        C  0.13994908  0.14046064  0.54251957     0.87300
C992        C  0.09695354  0.02085494  0.52465030     0.87200
C993        C  0.14943351  0.07637253  0.57536827     0.87200
C994        C  0.08370369  0.08319001  0.49769733     0.87400
O995        O  0.15250569  0.19620112  0.53485602    -0.74900
O996        O  0.21133394  0.28846424  0.54853831    -0.75000
O997        O  0.20777878  0.24490106  0.51103519    -0.75000
O998        O  0.15567482  0.24209149  0.56930026    -0.75100
O999        O  0.18179555  0.22754228  0.59845470    -0.75000
O1000       O  0.23633025  0.23164974  0.53859103    -0.75000
O1001       O  0.23870984  0.27330966  0.57571289    -0.74900
O1002       O  0.18168188  0.18502743  0.56345898    -0.75000
Ni1003     Ni  0.18084674  0.24335279  0.53976894     1.25400
Ni1004     Ni  0.21079231  0.22910008  0.56997785     1.25400
C1005       C  0.15748469  0.17553858  0.54788120     0.87300
C1006       C  0.23411567  0.29516705  0.56570894     0.87200
C1007       C  0.23106307  0.23964302  0.51502434     0.87200
C1008       C  0.15853562  0.23282812  0.59267618     0.87400
O1009       O  0.36873882  0.99699987  0.20153109    -0.74900
O1010       O  0.40218429  0.93819459  0.21523300    -0.75000
O1011       O  0.36216488  0.94173730  0.17770981    -0.75000
O1012       O  0.41147494  0.99384621  0.23599442    -0.75100
O1013       O  0.37078485  0.96775138  0.26512629    -0.75000
O1014       O  0.32035273  0.91319382  0.20524867    -0.75000
O1015       O  0.35964737  0.91084427  0.24239717    -0.74900
O1016       O  0.32836713  0.96783031  0.23010562    -0.75000
Ni1017     Ni  0.38755632  0.96867034  0.20645417     1.25400
Ni1018     Ni  0.34334278  0.93874213  0.23664244     1.25400
C1019       C  0.34308438  0.99202024  0.21453959     0.87300
C1020       C  0.38610298  0.91542911  0.23240075     0.87200
C1021       C  0.33361650  0.91845768  0.18168779     0.87200
C1022       C  0.39932390  0.49101103  0.25936150     0.87400
O1023       O  0.33051566  0.53520586  0.22219833    -0.74900
O1024       O  0.27170385  0.56865557  0.20850962    -0.75000
O1025       O  0.27524643  0.52864277  0.24601728    -0.75000
O1026       O  0.32735707  0.57792876  0.18774870    -0.75100
O1027       O  0.30123057  0.53725491  0.15859888    -0.75000
O1028       O  0.24669910  0.98683519  0.21846867    -0.75000
O1029       O  0.24432218  0.52612650  0.18133489    -0.74900
O1030       O  0.30132944  0.49485045  0.19360312    -0.75000
Ni1031     Ni  0.30218233  0.55402292  0.21728185     1.25400
Ni1032     Ni  0.27222836  0.50982261  0.18707670     1.25400
C1033       C  0.32552966  0.50956035  0.20917732     0.87300
C1034       C  0.24892221  0.55258013  0.19133800     0.87200
C1035       C  0.25195548  0.50010173  0.24202877     0.87200
C1036       C  0.32449370  0.56579939  0.16437383     0.87400
O1037       O  0.48584715  0.61415798  0.45151287    -0.74900
O1038       O  0.04465664  0.58070629  0.46520450    -0.75000
O1039       O  0.48900130  0.57143245  0.48596179    -0.75000
O1040       O  0.04111765  0.62072072  0.42769707    -0.75100
O1041       O  0.06967754  0.66252156  0.45525245    -0.75000
O1042       O  0.01512561  0.61210429  0.01511371    -0.75000
O1043       O  0.07203585  0.62323394  0.49238129    -0.74900
O1044       O  0.01503142  0.65451127  0.48011041    -0.75000
Ni1045     Ni  0.01417909  0.59533955  0.45643055     1.25400
Ni1046     Ni  0.04413084  0.63953795  0.48663795     1.25400
C1047       C  0.49083277  0.63980265  0.46453518     0.87300
C1048       C  0.06743713  0.59678042  0.48237699     0.87200
C1049       C  0.49186149  0.58355883  0.00933652     0.87200
C1050       C  0.06440854  0.64926038  0.43168674     0.87400
O1051       O  0.44764014  0.65236365  0.47218466    -0.74900
O1052       O  0.41419622  0.71116943  0.45848302    -0.75000
O1053       O  0.40490311  0.65551520  0.43772239    -0.75000
O1054       O  0.45421697  0.70762822  0.49600357    -0.75100
O1055       O  0.49602744  0.73617138  0.46846288    -0.75000
O1056       O  0.44559246  0.68160611  0.40858923    -0.75000
O1057       O  0.45672981  0.73851577  0.43131454    -0.74900
O1058       O  0.48801200  0.68153203  0.44360981    -0.75000
Ni1059     Ni  0.42882381  0.68069363  0.46726126     1.25400
Ni1060     Ni  0.47303571  0.71061929  0.43707090     1.25400
C1061       C  0.47329464  0.65734271  0.45917553     0.87300
C1062       C  0.43027648  0.73393458  0.44131387     0.87200
C1063       C  0.41703809  0.65835377  0.41435761     0.87200
C1064       C  0.48276618  0.73090983  0.49202428     0.87400
O1065       O  0.11430352  0.98568774  0.30551591    -0.74900
O1066       O  0.08086209  0.54451034  0.29181501    -0.75000
O1067       O  0.07157336  0.98884903  0.27105030    -0.75000
O1068       O  0.12087665  0.54095795  0.32933691    -0.75100
O1069       O  0.16269038  0.56949583  0.30179799    -0.75000
O1070       O  0.11225058  0.51494145  0.24192128    -0.75000
O1071       O  0.12339965  0.57185362  0.26464976    -0.74900
O1072       O  0.15466328  0.51485451  0.27694184    -0.75000
Ni1073     Ni  0.09548106  0.51402777  0.30059304     1.25400
Ni1074     Ni  0.13969619  0.54394908  0.27040464     1.25400
C1075       C  0.13995859  0.99066333  0.29251024     0.87300
C1076       C  0.09694622  0.56727554  0.27464641     0.87200
C1077       C  0.08370929  0.99168400  0.24768593     0.87200
C1078       C  0.14942812  0.56423423  0.32535943     0.87400
O1079       O  0.15251187  0.94747812  0.28485369    -0.74900
O1080       O  0.21133062  0.91403762  0.29854563    -0.75000
O1081       O  0.15567396  0.90475774  0.31930511    -0.75000
O1082       O  0.20778341  0.95404678  0.26103728    -0.75100
O1083       O  0.23634017  0.99585067  0.28859082    -0.75000
O1084       O  0.18179687  0.94543212  0.34845508    -0.75000
O1085       O  0.23870852  0.95656842  0.32571944    -0.74900
O1086       O  0.18169314  0.98783332  0.31345063    -0.75000
Ni1087     Ni  0.18084838  0.92866510  0.28977211     1.25400
Ni1088     Ni  0.21079779  0.97286640  0.31997734     1.25400
C1089       C  0.15749472  0.97312304  0.29787414     0.87300
C1090       C  0.23411228  0.93011583  0.31571680     0.87200
C1091       C  0.15853514  0.91688628  0.34267934     0.87200
C1092       C  0.23107173  0.98258892  0.26502492     0.87400
O1093       O  0.20207728  0.66366893  0.36820001    -0.74900
O1094       O  0.23551145  0.60485503  0.38190396    -0.75000
O1095       O  0.19549612  0.60840334  0.34438027    -0.75000
O1096       O  0.24480871  0.66051092  0.40266603    -0.75100
O1097       O  0.20411628  0.63441961  0.43179627    -0.75000
O1098       O  0.15368209  0.57986368  0.37191834    -0.75000
O1099       O  0.19297341  0.57750913  0.40906799    -0.74900
O1100       O  0.16170341  0.63450313  0.39677380    -0.75000
Ni1101     Ni  0.22088928  0.63533513  0.37312480     1.25400
Ni1102     Ni  0.17667368  0.60541106  0.40331213     1.25400
C1103       C  0.17642367  0.65869199  0.38120734     0.87300
C1104       C  0.21942758  0.58208944  0.39907110     0.87200
C1105       C  0.16694512  0.58512610  0.34835759     0.87200
C1106       C  0.23267158  0.65767143  0.42603002     0.87400
O1107       O  0.16386921  0.70187636  0.38886707    -0.74900
O1108       O  0.10505049  0.73531735  0.37517839    -0.75000
O1109       O  0.10859819  0.69530782  0.41268520    -0.75000
O1110       O  0.16070636  0.74459725  0.35441743    -0.75100
O1111       O  0.13458322  0.70392350  0.32526682    -0.75000
O1112       O  0.08004005  0.65350482  0.38513111    -0.75000
O1113       O  0.07767256  0.69278784  0.34800310    -0.74900
O1114       O  0.13468675  0.66152135  0.36027035    -0.75000
Ni1115     Ni  0.13553263  0.72068947  0.38395032     1.25400
Ni1116     Ni  0.10558245  0.67648903  0.35374446     1.25400
C1117       C  0.15888505  0.67623123  0.37584520     0.87300
C1118       C  0.08226869  0.71924054  0.35800726     0.87200
C1119       C  0.08530823  0.66676609  0.40869700     0.87200
C1120       C  0.15784503  0.73247010  0.33104274     0.87400
O1121       O  0.31918666  0.78081563  0.11818360    -0.74900
O1122       O  0.37800671  0.74737737  0.13187640    -0.75000
O1123       O  0.32234890  0.73809606  0.15263476    -0.75000
O1124       O  0.37446003  0.78738706  0.09436782    -0.75100
O1125       O  0.40301591  0.82919058  0.12192192    -0.75000
O1126       O  0.34846976  0.77877110  0.18178456    -0.75000
O1127       O  0.40538254  0.78990700  0.15905163    -0.74900
O1128       O  0.34836735  0.82117206  0.14677979    -0.75000
Ni1129     Ni  0.34752420  0.76200424  0.12310224     1.25400
Ni1130     Ni  0.37747212  0.80620556  0.15330777     1.25400
C1131       C  0.32416793  0.80646007  0.13120430     0.87300
C1132       C  0.40078623  0.76345477  0.14904864     0.87200
C1133       C  0.32520792  0.75022480  0.17600863     0.87200
C1134       C  0.39774770  0.81592939  0.09835553     0.87400
O1135       O  0.28097346  0.81901839  0.13885104    -0.74900
O1136       O  0.24753348  0.87782844  0.12514942    -0.75000
O1137       O  0.23823628  0.82217262  0.10438871    -0.75000
O1138       O  0.28755234  0.87428299  0.16266972    -0.75100
O1139       O  0.32936338  0.90282421  0.13512912    -0.75000
O1140       O  0.27892494  0.84826178  0.07525477    -0.75000
O1141       O  0.29006763  0.90517305  0.09798119    -0.74900
O1142       O  0.32134416  0.84818435  0.11027480    -0.75000
Ni1143     Ni  0.26215832  0.84735006  0.13392747     1.25400
Ni1144     Ni  0.30637025  0.87727371  0.10373665     1.25400
C1145       C  0.30662743  0.82399723  0.12584224     0.87300
C1146       C  0.26361516  0.90059412  0.10798043     0.87200
C1147       C  0.25036974  0.82501096  0.08102382     0.87200
C1148       C  0.31610191  0.89756265  0.15869035     0.87400
O1149       O  0.03541293  0.83034966  0.03486353    -0.74900
O1150       O  0.06884371  0.77153264  0.04856731    -0.75000
O1151       O  0.02883030  0.77508309  0.01104353    -0.75000
O1152       O  0.07814354  0.82718885  0.06932917    -0.75100
O1153       O  0.03745130  0.80109858  0.09845988    -0.75000
O1154       O  0.48701610  0.74654430  0.03858163    -0.75000
O1155       O  0.02630501  0.74418776  0.07573108    -0.74900
O1156       O  0.99503937  0.80118481  0.06343777    -0.75000
Ni1157     Ni  0.05422350  0.80201425  0.03978809     1.25400
Ni1158     Ni  0.01000779  0.77209126  0.06997563     1.25400
C1159       C  0.00975985  0.82537323  0.04787126     0.87300
C1160       C  0.05275902  0.74876636  0.06573437     0.87200
C1161       C  0.00028010  0.75180533  0.01502123     0.87200
C1162       C  0.06600781  0.82434899  0.09269371     0.87400
O1163       O  0.49720286  0.86855598  0.05553171    -0.74900
O1164       O  0.43837695  0.90198944  0.04184735    -0.75000
O1165       O  0.44193093  0.86198124  0.07935287    -0.75000
O1166       O  0.49403402  0.91127518  0.02108324    -0.75100
O1167       O  0.46791133  0.87060082  0.49193335    -0.75000
O1168       O  0.41337486  0.82017736  0.05179924    -0.75000
O1169       O  0.41099940  0.85945865  0.01467353    -0.74900
O1170       O  0.46802198  0.82820098  0.02693451    -0.75000
Ni1171     Ni  0.46886279  0.88736539  0.05061712     1.25400
Ni1172     Ni  0.43891369  0.84316415  0.02041175     1.25400
C1173       C  0.49222071  0.84291192  0.04250913     0.87300
C1174       C  0.41559461  0.88590993  0.02467739     0.87200
C1175       C  0.41864377  0.83343802  0.07536502     0.87200
C1176       C  0.99117219  0.89914653  0.99770871     0.87400
O1177       O  0.28662499  0.94745770  0.03485335    -0.74900
O1178       O  0.19435547  0.91404084  0.04855373    -0.75000
O1179       O  0.23792058  0.95404446  0.01104149    -0.75000
O1180       O  0.24072993  0.90473483  0.06929896    -0.75100
O1181       O  0.25534038  0.94540568  0.09845501    -0.75000
O1182       O  0.25123529  0.99585135  0.03859683    -0.75000
O1183       O  0.20957448  0.95657544  0.07572692    -0.74900
O1184       O  0.29785583  0.98780639  0.06346105    -0.75000
Ni1185     Ni  0.23946648  0.92865435  0.03977321     1.25400
Ni1186     Ni  0.25378455  0.97285454  0.06998347     1.25400
C1187       C  0.30731774  0.97309662  0.04788070     0.87300
C1188       C  0.18768504  0.93012442  0.06572866     0.87200
C1189       C  0.24321654  0.98259410  0.01502887     0.87200
C1190       C  0.25002876  0.91685829  0.09267279     0.87400
O1191       O  0.36309177  0.98569229  0.05554390    -0.74900
O1192       O  0.45534893  0.54453962  0.04183157    -0.75000
O1193       O  0.41178569  0.54097774  0.07934445    -0.75000
O1194       O  0.40898280  0.98886425  0.02109707    -0.75100
O1195       O  0.39436416  0.51492287  0.49193034    -0.75000
O1196       O  0.39847093  0.56947010  0.05178840    -0.75000
O1197       O  0.44013223  0.57185820  0.01465869    -0.74900
O1198       O  0.35184924  0.51480217  0.02692516    -0.75000
Ni1199     Ni  0.41023780  0.51404087  0.05061266     1.25400
Ni1200     Ni  0.39592115  0.54392512  0.02040230     1.25400
C1201       C  0.34240113  0.99063895  0.04251552     0.87300
C1202       C  0.46202022  0.56729554  0.02465629     0.87200
C1203       C  0.40648972  0.56423076  0.07535630     0.87200
C1204       C  0.39968516  0.99169155  0.99772233     0.87400
O1205       O  0.45327749  0.66366745  0.11817398    -0.74900
O1206       O  0.36100738  0.60481826  0.13187831    -0.75000
O1207       O  0.40739034  0.66049734  0.15262354    -0.75000
O1208       O  0.40456663  0.60837554  0.09436265    -0.75100
O1209       O  0.41787979  0.57988075  0.12191722    -0.75000
O1210       O  0.42199256  0.63442712  0.18177756    -0.75000
O1211       O  0.37622123  0.57749476  0.15904818    -0.74900
O1212       O  0.46450480  0.63454532  0.14678114    -0.75000
Ni1213     Ni  0.40611903  0.63531363  0.12309575     1.25400
Ni1214     Ni  0.42043245  0.60542519  0.15330424     1.25400
C1215       C  0.47396859  0.65871991  0.13120120     0.87300
C1216       C  0.35433438  0.58206156  0.14905233     0.87200
C1217       C  0.41668664  0.65766729  0.17599717     0.87200
C1218       C  0.40986116  0.58512099  0.09835025     0.87400
O1219       O  0.02974283  0.70190237  0.13886432    -0.74900
O1220       O  0.12201405  0.73532383  0.12516662    -0.75000
O1221       O  0.07563833  0.74462548  0.10441902    -0.75000
O1222       O  0.07844903  0.69531997  0.16267902    -0.75100
O1223       O  0.06513745  0.65351300  0.13512464    -0.75000
O1224       O  0.06103111  0.70395416  0.07526390    -0.75000
O1225       O  0.10679802  0.69278893  0.09799456    -0.74900
O1226       O  0.01851530  0.66155342  0.11025797    -0.75000
Ni1227     Ni  0.07690210  0.72070813  0.13394596     1.25400
Ni1228     Ni  0.06258731  0.67650755  0.10373684     1.25400
C1229       C  0.00905189  0.67626350  0.12583780     0.87300
C1230       C  0.12868491  0.71923985  0.10799279     0.87200
C1231       C  0.06634205  0.73250184  0.08104484     0.87200
C1232       C  0.07315533  0.66677130  0.15869160     0.87400
O1233       O  0.11995231  0.61413375  0.20151289    -0.74900
O1234       O  0.02768039  0.58070248  0.21521570    -0.75000
O1235       O  0.07123940  0.62070806  0.17769966    -0.75000
O1236       O  0.07406327  0.57141089  0.23596163    -0.75100
O1237       O  0.08866852  0.61208365  0.26511474    -0.75000
O1238       O  0.08454748  0.66251493  0.20525308    -0.75000
O1239       O  0.04289321  0.62323775  0.24238678    -0.74900
O1240       O  0.13117762  0.65448465  0.23011636    -0.75000
Ni1241     Ni  0.07279272  0.59532348  0.20643371     1.25400
Ni1242     Ni  0.08710467  0.63952511  0.23664094     1.25400
C1243       C  0.14064241  0.63977427  0.21453757     0.87300
C1244       C  0.02100733  0.59678449  0.23239072     0.87200
C1245       C  0.07652974  0.64925460  0.18168633     0.87200
C1246       C  0.08336056  0.58353739  0.25933482     0.87400
O1247       O  0.19641525  0.65236558  0.22220305    -0.74900
O1248       O  0.28868869  0.71120700  0.20850264    -0.75000
O1249       O  0.24512957  0.70765410  0.24601541    -0.75000
O1250       O  0.24230358  0.65553120  0.18775689    -0.75100
O1251       O  0.22770393  0.68160186  0.15860100    -0.75000
O1252       O  0.23182487  0.73615458  0.21845957    -0.75000
O1253       O  0.27348074  0.73853234  0.18132924    -0.74900
O1254       O  0.18519384  0.68149240  0.19359640    -0.75000
Ni1255     Ni  0.24357528  0.68071532  0.21728329     1.25400
Ni1256     Ni  0.22926800  0.71060729  0.18707315     1.25400
C1257       C  0.17572718  0.65731692  0.20917616     0.87300
C1258       C  0.29536426  0.73396418  0.19132696     0.87200
C1259       C  0.23984104  0.73091189  0.24202714     0.87200
C1260       C  0.23300860  0.65836157  0.16438256     0.87400
O1261       O  0.28662866  0.83034784  0.28484847    -0.74900
O1262       O  0.19435753  0.77149151  0.29854827    -0.75000
O1263       O  0.24073478  0.82717011  0.31929638    -0.75000
O1264       O  0.23792141  0.77505680  0.26103426    -0.75100
O1265       O  0.25123454  0.74656125  0.28858807    -0.75000
O1266       O  0.25533939  0.80110205  0.34845049    -0.75000
O1267       O  0.20957290  0.74416938  0.32571805    -0.74900
O1268       O  0.29785646  0.80122576  0.31345498    -0.75000
Ni1269     Ni  0.23946939  0.80199078  0.28976813     1.25400
Ni1270     Ni  0.25378405  0.77210285  0.31997618     1.25400
C1271       C  0.30731908  0.82539969  0.29787539     0.87300
C1272       C  0.18768670  0.74873432  0.31572175     0.87200
C1273       C  0.25002966  0.82433884  0.34267061     0.87200
C1274       C  0.24321566  0.75180275  0.26502126     0.87400
O1275       O  0.36309584  0.86858184  0.30553536    -0.74900
O1276       O  0.45536534  0.90199572  0.29183649    -0.75000
O1277       O  0.40899085  0.91129798  0.27108550    -0.75000
O1278       O  0.41180015  0.86199694  0.32935204    -0.75100
O1279       O  0.39848389  0.82018666  0.30180049    -0.75000
O1280       O  0.39438148  0.87062218  0.24193485    -0.75000
O1281       O  0.44014650  0.85945632  0.26466909    -0.74900
O1282       O  0.35186472  0.82822920  0.27693216    -0.75000
Ni1283     Ni  0.41025453  0.88738379  0.30061596     1.25400
Ni1284     Ni  0.39593611  0.84317884  0.27041099     1.25400
C1285       C  0.34240343  0.84294219  0.29251052     0.87300
C1286       C  0.46203541  0.88590897  0.27466434     0.87200
C1287       C  0.39969235  0.89916970  0.24771288     0.87200
C1288       C  0.40650258  0.83344724  0.32536678     0.87400
O1289       O  0.45328122  0.78079303  0.36818599    -0.74900
O1290       O  0.36101187  0.74737429  0.38188746    -0.75000
O1291       O  0.40457564  0.78737879  0.34437443    -0.75000
O1292       O  0.40738792  0.73807132  0.40263291    -0.75100
O1293       O  0.42199860  0.77874346  0.43178760    -0.75000
O1294       O  0.41788970  0.82918582  0.37192928    -0.75000
O1295       O  0.37622984  0.78990882  0.40906044    -0.74900
O1296       O  0.46451220  0.82114306  0.39679215    -0.75000
Ni1297     Ni  0.40612282  0.76198918  0.37310640     1.25400
Ni1298     Ni  0.42044057  0.80619018  0.40331583     1.25400
C1299       C  0.47397368  0.80643166  0.38121241     0.87300
C1300       C  0.35434247  0.76345773  0.39906309     0.87200
C1301       C  0.40987175  0.81592786  0.34836221     0.87200
C1302       C  0.41668757  0.75019633  0.42600543     0.87400
O1303       O  0.02974669  0.81902387  0.38887780    -0.74900
O1304       O  0.12201886  0.87786882  0.37517528    -0.75000
O1305       O  0.07845796  0.87431561  0.41268644    -0.75000
O1306       O  0.07563632  0.82218856  0.35443283    -0.75100
O1307       O  0.06103656  0.84825553  0.32527337    -0.75000
O1308       O  0.06514834  0.90281008  0.38512805    -0.75000
O1309       O  0.10680743  0.90519004  0.34800054    -0.74900
O1310       O  0.01852246  0.84814387  0.36026579    -0.75000
Ni1311     Ni  0.07690602  0.84737521  0.38395698     1.25400
Ni1312     Ni  0.06259563  0.87726163  0.35374344     1.25400
C1313       C  0.00905757  0.82397215  0.37584824     0.87300
C1314       C  0.12869193  0.90062412  0.35799916     0.87200
C1315       C  0.07316618  0.89757100  0.40869657     0.87200
C1316       C  0.06634305  0.82501739  0.33105770     0.87400
O1317       O  0.19641565  0.53522789  0.47220026    -0.74900
O1318       O  0.28868719  0.56865223  0.45850346    -0.75000
O1319       O  0.24231001  0.57795090  0.43775547    -0.75000
O1320       O  0.24512253  0.52864591  0.49601593    -0.75100
O1321       O  0.23182650  0.98685162  0.46846790    -0.75000
O1322       O  0.22770381  0.53727944  0.40860074    -0.75000
O1323       O  0.27347380  0.52611827  0.43133084    -0.74900
O1324       O  0.18518911  0.49487825  0.44359508    -0.75000
Ni1325     Ni  0.24357494  0.55403413  0.46728257     1.25400
Ni1326     Ni  0.22926191  0.50983384  0.43707360     1.25400
C1327       C  0.17572510  0.50958907  0.45917287     0.87300
C1328       C  0.29535932  0.55256961  0.44132772     0.87200
C1329       C  0.23301315  0.56582606  0.41438187     0.87200
C1330       C  0.23982940  0.50009724  0.49202836     0.87400
O1331       O  0.11996455  0.99700821  0.45151471    -0.74900
O1332       O  0.02769101  0.93816637  0.46521487    -0.75000
O1333       O  0.07407645  0.99384175  0.48596147    -0.75000
O1334       O  0.07125075  0.94172018  0.42770119    -0.75100
O1335       O  0.08455782  0.91322137  0.45525688    -0.75000
O1336       O  0.08867223  0.96776780  0.01511725    -0.75000
O1337       O  0.04289894  0.91083880  0.49238544    -0.74900
O1338       O  0.13118559  0.96788244  0.48012293    -0.75000
Ni1339     Ni  0.07280474  0.96865844  0.45643411     1.25400
Ni1340     Ni  0.08711156  0.93876577  0.48664380     1.25400
C1341       C  0.14065312  0.99205756  0.46454302     0.87300
C1342       C  0.02101580  0.91540856  0.48238881     0.87200
C1343       C  0.08335578  0.49100360  0.00932460     0.87200
C1344       C  0.07654090  0.91846294  0.43168903     0.87400
O1345       O  0.33052022  0.78648849  0.47220937    -0.74900
O1346       O  0.27170566  0.69422545  0.45851537    -0.75000
O1347       O  0.32736221  0.74061004  0.43775911    -0.75000
O1348       O  0.27524692  0.73777807  0.49602448    -0.75100
O1349       O  0.24669199  0.75102513  0.46846905    -0.75000
O1350       O  0.30123876  0.75515894  0.40860713    -0.75000
O1351       O  0.24432759  0.70937684  0.43134023    -0.74900
O1352       O  0.30133999  0.79766143  0.44361045    -0.75000
Ni1353     Ni  0.30218517  0.73933709  0.46729059     1.25400
Ni1354     Ni  0.27223633  0.75358761  0.43708343     1.25400
C1355       C  0.32553842  0.80715078  0.45918700     0.87300
C1356       C  0.24892601  0.68752072  0.44134240     0.87200
C1357       C  0.32450027  0.74987743  0.41438380     0.87200
C1358       C  0.25196018  0.74303140  0.49203457     0.87400
O1359       O  0.36873367  0.86290794  0.45153998    -0.74900
O1360       O  0.40217695  0.95516007  0.46524277    -0.75000
O1361       O  0.41147088  0.90879965  0.48600236    -0.75000
O1362       O  0.36215797  0.91159669  0.42772042    -0.75100
O1363       O  0.32034645  0.89832386  0.45525998    -0.75000
O1364       O  0.37078084  0.89419453  0.01513527    -0.75000
O1365       O  0.35964262  0.93996679  0.49241052    -0.74900
O1366       O  0.32836138  0.85169961  0.48011424    -0.75000
Ni1367     Ni  0.38755022  0.91005612  0.45646365     1.25400
Ni1368     Ni  0.34333743  0.89576371  0.48665321     1.25400
C1369       C  0.34307858  0.84222979  0.46454761     0.87300
C1370       C  0.38609650  0.96184173  0.48241315     0.87200
C1371       C  0.39933556  0.89950128  0.00936753     0.87200
C1372       C  0.33360832  0.90632484  0.43169870     0.87400
O1373       O  0.31917646  0.52954139  0.36818262    -0.74900
O1374       O  0.37800122  0.62180221  0.38187427    -0.75000
O1375       O  0.37445206  0.57824606  0.34436607    -0.75000
O1376       O  0.32234249  0.57542277  0.40263369    -0.75100
O1377       O  0.34846304  0.56086821  0.43178383    -0.75000
O1378       O  0.40300511  0.56499541  0.37192053    -0.75000
O1379       O  0.40537587  0.60664644  0.40904918    -0.74900
O1380       O  0.34835458  0.51836354  0.39677974    -0.75000
Ni1381     Ni  0.34751672  0.57669173  0.37310074     1.25400
Ni1382     Ni  0.37746285  0.56243636  0.40330663     1.25400
C1383       C  0.32415687  0.50887744  0.38120502     0.87300
C1384       C  0.40078073  0.62850457  0.39904610     0.87200
C1385       C  0.39773793  0.57298990  0.34835478     0.87200
C1386       C  0.32520187  0.56615286  0.42600796     0.87400
O1387       O  0.28096599  0.95311547  0.38885751    -0.74900
O1388       O  0.24752962  0.86086521  0.37515129    -0.75000
O1389       O  0.28754339  0.90442759  0.41267689    -0.75000
O1390       O  0.23823289  0.90722452  0.35439222    -0.75100
O1391       O  0.27892483  0.92183048  0.32526125    -0.75000
O1392       O  0.32935818  0.91770696  0.38513943    -0.75000
O1393       O  0.29006882  0.87606297  0.34798834    -0.74900
O1394       O  0.32133879  0.96432675  0.36028308    -0.75000
Ni1395     Ni  0.26215204  0.90596774  0.38393233     1.25400
Ni1396     Ni  0.30636783  0.92026422  0.35374504     1.25400
C1397       C  0.30661986  0.97379367  0.37584977     0.87300
C1398       C  0.26361355  0.85418604  0.35798349     0.87200
C1399       C  0.31609376  0.90970292  0.40870067     0.87200
C1400       C  0.25036900  0.91652353  0.33102773     0.87400
O1401       O  0.49719512  0.61981873  0.30553530    -0.74900
O1402       O  0.43836297  0.52755908  0.29184488    -0.75000
O1403       O  0.49402410  0.57393358  0.27108518    -0.75000
O1404       O  0.44191801  0.57111831  0.32935220    -0.75100
O1405       O  0.41336859  0.58437396  0.30179796    -0.75000
O1406       O  0.46790537  0.58848947  0.24193429    -0.75000
O1407       O  0.41099007  0.54271844  0.26467143    -0.74900
O1408       O  0.46802088  0.63099924  0.27693603    -0.75000
Ni1409     Ni  0.46885137  0.57266868  0.30061779     1.25400
Ni1410     Ni  0.43890824  0.58692751  0.27041163     1.25400
C1411       C  0.49221761  0.64048351  0.29251222     0.87300
C1412       C  0.41558272  0.52085911  0.27467390     0.87200
C1413       C  0.99116517  0.58320312  0.24771027     0.87200
C1414       C  0.41863436  0.57637784  0.32536415     0.87400
O1415       O  0.03541247  0.69624196  0.28486879    -0.74900
O1416       O  0.06884363  0.78849085  0.29857661    -0.75000
O1417       O  0.07814558  0.74213347  0.31933398    -0.75000
O1418       O  0.02882905  0.74492704  0.26105210    -0.75100
O1419       O  0.48701537  0.73164580  0.28859120    -0.75000
O1420       O  0.03745445  0.72752323  0.34846630    -0.75000
O1421       O  0.02630661  0.77329012  0.32574289    -0.74900
O1422       O  0.99503992  0.68502739  0.31344465    -0.75000
Ni1423     Ni  0.05422342  0.74338891  0.28979506     1.25400
Ni1424     Ni  0.01000888  0.72908912  0.31998439     1.25400
C1425       C  0.00975865  0.67556160  0.29787662     0.87300
C1426       C  0.05275978  0.79516899  0.31574668     0.87200
C1427       C  0.06601033  0.73283261  0.34269757     0.87200
C1428       C  0.00027780  0.73964983  0.26502981     0.87400
O1429       O  0.44763803  0.78644544  0.22219181    -0.74900
O1430       O  0.41419415  0.69419509  0.20848055    -0.75000
O1431       O  0.45421162  0.73775303  0.24600844    -0.75000
O1432       O  0.40490450  0.74056043  0.18772427    -0.75100
O1433       O  0.44559682  0.75516569  0.15859378    -0.75000
O1434       O  0.49602528  0.75102984  0.21847055    -0.75000
O1435       O  0.45673147  0.70939003  0.18131616    -0.74900
O1436       O  0.48801182  0.79765605  0.19361860    -0.75000
Ni1437     Ni  0.42882145  0.73929811  0.21726414     1.25400
Ni1438     Ni  0.47303672  0.75359286  0.18707678     1.25400
C1439       C  0.47329306  0.80712421  0.20918484     0.87300
C1440       C  0.43027633  0.68751552  0.19131015     0.87200
C1441       C  0.48276166  0.74302685  0.24203122     0.87200
C1442       C  0.41704170  0.74986078  0.16436040     0.87400
O1443       O  0.48584976  0.86286465  0.20152174    -0.74900
O1444       O  0.04467060  0.95512867  0.21520598    -0.75000
O1445       O  0.04112127  0.91156957  0.17770157    -0.75000
O1446       O  0.48901430  0.90875045  0.23596757    -0.75100
O1447       O  0.01513706  0.89420189  0.26512047    -0.75000
O1448       O  0.06967758  0.89832408  0.20525708    -0.75000
O1449       O  0.07204847  0.93997797  0.24238193    -0.74900
O1450       O  0.01503062  0.85169334  0.23012122    -0.75000
Ni1451     Ni  0.01418735  0.91001640  0.20643576     1.25400
Ni1452     Ni  0.04413655  0.89576714  0.23664358     1.25400
C1453       C  0.49083219  0.84220343  0.21454551     0.87300
C1454       C  0.06745180  0.96183379  0.23237709     0.87200
C1455       C  0.06440907  0.90631658  0.18169101     0.87200
C1456       C  0.49187588  0.89948560  0.25934331     0.87400
O1457       O  0.20207330  0.52958487  0.11819918    -0.74900
O1458       O  0.23550570  0.62183448  0.13190233    -0.75000
O1459       O  0.24480481  0.57547695  0.15266377    -0.75000
O1460       O  0.19549060  0.57826932  0.09437857    -0.75100
O1461       O  0.15367655  0.56498988  0.12191677    -0.75000
O1462       O  0.20411238  0.56086953  0.18179441    -0.75000
O1463       O  0.19296794  0.60663708  0.15906671    -0.74900
O1464       O  0.16169972  0.51837207  0.14677328    -0.75000
Ni1465     Ni  0.22088425  0.57673180  0.12312313     1.25400
Ni1466     Ni  0.17666887  0.56243471  0.15331081     1.25400
C1467       C  0.17641981  0.50890507  0.13120753     0.87300
C1468       C  0.21942200  0.62851319  0.14907061     0.87200
C1469       C  0.23266791  0.56617634  0.17602774     0.87200
C1470       C  0.16693922  0.57299262  0.09835577     0.87400
O1471       O  0.16386677  0.95315990  0.13887418    -0.74900
O1472       O  0.10504462  0.86089843  0.12517937    -0.75000
O1473       O  0.16070336  0.90727850  0.10442347    -0.75000
O1474       O  0.10859242  0.90445257  0.16268904    -0.75100
O1475       O  0.08003953  0.91770366  0.13513474    -0.75000
O1476       O  0.13458389  0.92183284  0.07527198    -0.75000
O1477       O  0.07767001  0.87605489  0.09800512    -0.74900
O1478       O  0.13468891  0.96433675  0.11027579    -0.75000
Ni1479     Ni  0.13552829  0.90600893  0.13395493     1.25400
Ni1480     Ni  0.10558258  0.92026436  0.10374856     1.25400
C1481       C  0.15888640  0.97382397  0.12585244     0.87300
C1482       C  0.08226497  0.85419724  0.10800674     0.87200
C1483       C  0.15784411  0.91654725  0.08104822     0.87200
C1484       C  0.08530658  0.90970786  0.15870040     0.87400
O1485       O  0.11428709  0.61977504  0.05551787    -0.74900
O1486       O  0.08085645  0.52752663  0.04180814    -0.75000
O1487       O  0.12087039  0.57108914  0.07933434    -0.75000
O1488       O  0.07155605  0.57388467  0.02105076    -0.75100
O1489       O  0.11224872  0.58849469  0.49191998    -0.75000
O1490       O  0.16268534  0.58437234  0.05179631    -0.75000
O1491       O  0.12339515  0.54272763  0.01464413    -0.74900
O1492       O  0.15466075  0.63099109  0.02694300    -0.75000
Ni1493     Ni  0.09547678  0.57262835  0.05059055     1.25400
Ni1494     Ni  0.13969282  0.58692906  0.02040281     1.25400
C1495       C  0.13994090  0.64045607  0.04251040     0.87300
C1496       C  0.09694075  0.52085003  0.02463884     0.87200
C1497       C  0.14942207  0.57636761  0.07535701     0.87200
C1498       C  0.08369265  0.58318597  0.99768696     0.87400
O1499       O  0.15250158  0.69619860  0.03485107    -0.74900
O1500       O  0.21133045  0.78846005  0.04854001    -0.75000
O1501       O  0.20777768  0.74490000  0.01103503    -0.75000
O1502       O  0.15566944  0.74208539  0.06929847    -0.75100
O1503       O  0.18178661  0.72753080  0.09845211    -0.75000
O1504       O  0.23632754  0.73164715  0.03859146    -0.75000
O1505       O  0.23870206  0.77330226  0.07571672    -0.74900
O1506       O  0.18167574  0.68502062  0.06345260    -0.75000
Ni1507     Ni  0.18084350  0.74334959  0.03976769     1.25400
Ni1508     Ni  0.21078593  0.72909302  0.06997663     1.25400
C1509       C  0.15747918  0.67553442  0.04787438     0.87300
C1510       C  0.23411026  0.79516212  0.06571255     0.87200
C1511       C  0.23106255  0.73964194  0.01502470     0.87200
C1512       C  0.15852783  0.73281807  0.09267367     0.87400
O1513       O  0.36873894  0.99699987  0.70153105    -0.74900
O1514       O  0.40218430  0.93819454  0.71523300    -0.75000
O1515       O  0.36216498  0.94173739  0.67770984    -0.75000
O1516       O  0.41147493  0.99384620  0.73599449    -0.75100
O1517       O  0.37078502  0.96775146  0.76512642    -0.75000
O1518       O  0.32035283  0.91319388  0.70524870    -0.75000
O1519       O  0.35964748  0.91084435  0.74239726    -0.74900
O1520       O  0.32836725  0.96783036  0.73010562    -0.75000
Ni1521     Ni  0.38755627  0.96867027  0.70645417     1.25400
Ni1522     Ni  0.34334288  0.93874218  0.73664249     1.25400
C1523       C  0.34308408  0.99202008  0.71453981     0.87300
C1524       C  0.38610304  0.91542919  0.73240080     0.87200
C1525       C  0.33361634  0.91845758  0.68168787     0.87200
C1526       C  0.39932395  0.49101104  0.75936145     0.87400
O1527       O  0.33051569  0.53520588  0.72219829    -0.74900
O1528       O  0.27170392  0.56865555  0.70850962    -0.75000
O1529       O  0.27524646  0.52864278  0.74601724    -0.75000
O1530       O  0.32735701  0.57792872  0.68774874    -0.75100
O1531       O  0.30123042  0.53725478  0.65859888    -0.75000
O1532       O  0.24669905  0.98683516  0.71846878    -0.75000
O1533       O  0.24432228  0.52612640  0.68133488    -0.74900
O1534       O  0.30132948  0.49485047  0.69360307    -0.75000
Ni1535     Ni  0.30218232  0.55402293  0.71728181     1.25400
Ni1536     Ni  0.27222840  0.50982261  0.68707668     1.25400
C1537       C  0.32552970  0.50956037  0.70917726     0.87300
C1538       C  0.24892211  0.55258032  0.69133793     0.87200
C1539       C  0.25195547  0.50010173  0.74202874     0.87200
C1540       C  0.32449393  0.56579971  0.66437366     0.87400
O1541       O  0.48584722  0.61415815  0.95151294    -0.74900
O1542       O  0.04465665  0.58070629  0.96520447    -0.75000
O1543       O  0.48900135  0.57143241  0.98596158    -0.75000
O1544       O  0.04111761  0.62072069  0.92769703    -0.75100
O1545       O  0.06967754  0.66252155  0.95525238    -0.75000
O1546       O  0.01512555  0.61210430  0.51511383    -0.75000
O1547       O  0.07203587  0.62323394  0.99238126    -0.74900
O1548       O  0.01503162  0.65451137  0.98011051    -0.75000
Ni1549     Ni  0.01417909  0.59533955  0.95643055     1.25400
Ni1550     Ni  0.04413085  0.63953795  0.98663790     1.25400
C1551       C  0.49083236  0.63980230  0.96453476     0.87300
C1552       C  0.06743717  0.59678044  0.98237696     0.87200
C1553       C  0.49186156  0.58355870  0.50933601     0.87200
C1554       C  0.06440860  0.64926044  0.93168678     0.87400
O1555       O  0.44764024  0.65236366  0.97218454    -0.74900
O1556       O  0.41419618  0.71116952  0.95848292    -0.75000
O1557       O  0.40490318  0.65551518  0.93772244    -0.75000
O1558       O  0.45421711  0.70762827  0.99600361    -0.75100
O1559       O  0.49602747  0.73617148  0.96846280    -0.75000
O1560       O  0.44559256  0.68160621  0.90858925    -0.75000
O1561       O  0.45672986  0.73851582  0.93131456    -0.74900
O1562       O  0.48801210  0.68153223  0.94360977    -0.75000
Ni1563     Ni  0.42882377  0.68069362  0.96726125     1.25400
Ni1564     Ni  0.47303569  0.71061930  0.93707096     1.25400
C1565       C  0.47329407  0.65734236  0.95917605     0.87300
C1566       C  0.43027621  0.73393444  0.94131411     0.87200
C1567       C  0.41703785  0.65835371  0.91435770     0.87200
C1568       C  0.48276575  0.73090963  0.99202468     0.87400
O1569       O  0.11430367  0.98568774  0.80551587    -0.74900
O1570       O  0.08086213  0.54451039  0.79181492    -0.75000
O1571       O  0.07157341  0.98884906  0.77105018    -0.75000
O1572       O  0.12087667  0.54095796  0.82933697    -0.75100
O1573       O  0.16269039  0.56949586  0.80179810    -0.75000
O1574       O  0.11225058  0.51494147  0.74192139    -0.75000
O1575       O  0.12339966  0.57185366  0.76464966    -0.74900
O1576       O  0.15466328  0.51485442  0.77694185    -0.75000
Ni1577     Ni  0.09548105  0.51402773  0.80059304     1.25400
Ni1578     Ni  0.13969618  0.54394909  0.77040464     1.25400
C1579       C  0.13995818  0.99066332  0.79251029     0.87300
C1580       C  0.09694608  0.56727545  0.77464651     0.87200
C1581       C  0.08370929  0.99168407  0.74768613     0.87200
C1582       C  0.14942825  0.56423432  0.82535929     0.87400
O1583       O  0.15251179  0.94747805  0.78485364    -0.74900
O1584       O  0.21133064  0.91403768  0.79854555    -0.75000
O1585       O  0.15567402  0.90475767  0.81930497    -0.75000
O1586       O  0.20778360  0.95404694  0.76103718    -0.75100
O1587       O  0.23634013  0.99585081  0.78859065    -0.75000
O1588       O  0.18179680  0.94543211  0.84845497    -0.75000
O1589       O  0.23870842  0.95656842  0.82571944    -0.74900
O1590       O  0.18169297  0.98783326  0.81345059    -0.75000
Ni1591     Ni  0.18084839  0.92866514  0.78977213     1.25400
Ni1592     Ni  0.21079769  0.97286639  0.81997732     1.25400
C1593       C  0.15749490  0.97312321  0.79787430     0.87300
C1594       C  0.23411229  0.93011581  0.81571677     0.87200
C1595       C  0.15853492  0.91688628  0.84267961     0.87200
C1596       C  0.23107130  0.98258861  0.76502531     0.87400
O1597       O  0.20207757  0.66366888  0.86819994    -0.74900
O1598       O  0.23551150  0.60485505  0.88190391    -0.75000
O1599       O  0.19549628  0.60840351  0.84438032    -0.75000
O1600       O  0.24480873  0.66051088  0.90266587    -0.75100
O1601       O  0.20411624  0.63441957  0.93179616    -0.75000
O1602       O  0.15368216  0.57986375  0.87191850    -0.75000
O1603       O  0.19297346  0.57750918  0.90906797    -0.74900
O1604       O  0.16170359  0.63450309  0.89677375    -0.75000
Ni1605     Ni  0.22088929  0.63533511  0.87312477     1.25400
Ni1606     Ni  0.17667368  0.60541101  0.90331211     1.25400
C1607       C  0.17642282  0.65869193  0.88120761     0.87300
C1608       C  0.21942762  0.58208945  0.89907107     0.87200
C1609       C  0.16694480  0.58512574  0.84835707     0.87200
C1610       C  0.23267144  0.65767152  0.92603043     0.87400
O1611       O  0.16386907  0.70187638  0.88886701    -0.74900
O1612       O  0.10505022  0.73531733  0.87517823    -0.75000
O1613       O  0.10859810  0.69530775  0.91268519    -0.75000
O1614       O  0.16070642  0.74459729  0.85441722    -0.75100
O1615       O  0.13458328  0.70392349  0.82526674    -0.75000
O1616       O  0.08003996  0.65350481  0.88513112    -0.75000
O1617       O  0.07767244  0.69278801  0.84800304    -0.74900
O1618       O  0.13468650  0.66152134  0.86027021    -0.75000
Ni1619     Ni  0.13553267  0.72068950  0.88395028     1.25400
Ni1620     Ni  0.10558244  0.67648904  0.85374443     1.25400
C1621       C  0.15888581  0.67623124  0.87584556     0.87300
C1622       C  0.08226916  0.71924042  0.85800747     0.87200
C1623       C  0.08530850  0.66676631  0.90869678     0.87200
C1624       C  0.15784499  0.73247024  0.83104316     0.87400
O1625       O  0.31918667  0.78081561  0.61818349    -0.74900
O1626       O  0.37800659  0.74737731  0.63187625    -0.75000
O1627       O  0.32234893  0.73809605  0.65263472    -0.75000
O1628       O  0.37446024  0.78738727  0.59436767    -0.75100
O1629       O  0.40301602  0.82919061  0.62192178    -0.75000
O1630       O  0.34846976  0.77877112  0.68178454    -0.75000
O1631       O  0.40538250  0.78990696  0.65905152    -0.74900
O1632       O  0.34836732  0.82117202  0.64677970    -0.75000
Ni1633     Ni  0.34752424  0.76200426  0.62310220     1.25400
Ni1634     Ni  0.37747211  0.80620557  0.65330779     1.25400
C1635       C  0.32416799  0.80646029  0.63120441     0.87300
C1636       C  0.40078661  0.76345509  0.64904897     0.87200
C1637       C  0.32520777  0.75022481  0.67600871     0.87200
C1638       C  0.39774749  0.81592918  0.59835594     0.87400
O1639       O  0.28097327  0.81901847  0.63885113    -0.74900
O1640       O  0.24753349  0.87782842  0.62514941    -0.75000
O1641       O  0.23823632  0.82217259  0.60438867    -0.75000
O1642       O  0.28755248  0.87428309  0.66266976    -0.75100
O1643       O  0.32936344  0.90282426  0.63512913    -0.75000
O1644       O  0.27892502  0.84826182  0.57525475    -0.75000
O1645       O  0.29006766  0.90517303  0.59798118    -0.74900
O1646       O  0.32134410  0.84818436  0.61027479    -0.75000
Ni1647     Ni  0.26215837  0.84735007  0.63392745     1.25400
Ni1648     Ni  0.30637024  0.87727367  0.60373662     1.25400
C1649       C  0.30662812  0.82399712  0.62584204     0.87300
C1650       C  0.26361525  0.90059415  0.60798056     0.87200
C1651       C  0.25036972  0.82501098  0.58102390     0.87200
C1652       C  0.31610174  0.89756251  0.65869031     0.87400
O1653       O  0.03541296  0.83034967  0.53486352    -0.74900
O1654       O  0.06884378  0.77153258  0.54856731    -0.75000
O1655       O  0.02883030  0.77508312  0.51104344    -0.75000
O1656       O  0.07814360  0.82718885  0.56932915    -0.75100
O1657       O  0.03745140  0.80109857  0.59845987    -0.75000
O1658       O  0.48701598  0.74654412  0.53858162    -0.75000
O1659       O  0.02630510  0.74418770  0.57573103    -0.74900
O1660       O  0.99503933  0.80118470  0.56343764    -0.75000
Ni1661     Ni  0.05422352  0.80201423  0.53978809     1.25400
Ni1662     Ni  0.01000775  0.77209117  0.56997557     1.25400
C1663       C  0.00975961  0.82537308  0.54787135     0.87300
C1664       C  0.05275873  0.74876629  0.56573432     0.87200
C1665       C  0.00028023  0.75180543  0.51502139     0.87200
C1666       C  0.06600751  0.82434873  0.59269380     0.87400
O1667       O  0.49720290  0.86855598  0.55553170    -0.74900
O1668       O  0.43837705  0.90198948  0.54184734    -0.75000
O1669       O  0.44193103  0.86198140  0.57935283    -0.75000
O1670       O  0.49403402  0.91127518  0.52108335    -0.75100
O1671       O  0.46791138  0.87060083  0.99193330    -0.75000
O1672       O  0.41337499  0.82017740  0.55179913    -0.75000
O1673       O  0.41099944  0.85945849  0.51467363    -0.74900
O1674       O  0.46802196  0.82820091  0.52693456    -0.75000
Ni1675     Ni  0.46886276  0.88736540  0.55061713     1.25400
Ni1676     Ni  0.43891372  0.84316413  0.52041178     1.25400
C1677       C  0.49222072  0.84291210  0.54250933     0.87300
C1678       C  0.41559453  0.88591017  0.52467731     0.87200
C1679       C  0.41864355  0.83343777  0.57536530     0.87200
C1680       C  0.99117253  0.89914669  0.49770846     0.87400
O1681       O  0.28662504  0.94745770  0.53485348    -0.74900
O1682       O  0.19435550  0.91404083  0.54855380    -0.75000
O1683       O  0.23792062  0.95404445  0.51104162    -0.75000
O1684       O  0.24073001  0.90473487  0.56929926    -0.75100
O1685       O  0.25534051  0.94540575  0.59845515    -0.75000
O1686       O  0.25123528  0.99585131  0.53859697    -0.75000
O1687       O  0.20957449  0.95657541  0.57572699    -0.74900
O1688       O  0.29785587  0.98780638  0.56346115    -0.75000
Ni1689     Ni  0.23946649  0.92865434  0.53977328     1.25400
Ni1690     Ni  0.25378457  0.97285451  0.56998352     1.25400
C1691       C  0.30731775  0.97309657  0.54788072     0.87300
C1692       C  0.18768514  0.93012457  0.56572887     0.87200
C1693       C  0.24321653  0.98259408  0.51502895     0.87200
C1694       C  0.25002857  0.91685821  0.59267229     0.87400
O1695       O  0.36309187  0.98569243  0.55554389    -0.74900
O1696       O  0.45534896  0.54453959  0.54183162    -0.75000
O1697       O  0.41178570  0.54097787  0.57934454    -0.75000
O1698       O  0.40898279  0.98886426  0.52109699    -0.75100
O1699       O  0.39436412  0.51492296  0.99193032    -0.75000
O1700       O  0.39847094  0.56947019  0.55178861    -0.75000
O1701       O  0.44013222  0.57185823  0.51465881    -0.74900
O1702       O  0.35184928  0.51480223  0.52692525    -0.75000
Ni1703     Ni  0.41023783  0.51404084  0.55061266     1.25400
Ni1704     Ni  0.39592118  0.54392515  0.52040233     1.25400
C1705       C  0.34240096  0.99063856  0.54251582     0.87300
C1706       C  0.46202020  0.56729553  0.52465642     0.87200
C1707       C  0.40648964  0.56423047  0.57535580     0.87200
C1708       C  0.39968532  0.99169164  0.49772270     0.87400
O1709       O  0.45327765  0.66366748  0.61817386    -0.74900
O1710       O  0.36100725  0.60481836  0.63187819    -0.75000
O1711       O  0.40739038  0.66049745  0.65262355    -0.75000
O1712       O  0.40456665  0.60837552  0.59436267    -0.75100
O1713       O  0.41787968  0.57988066  0.62191738    -0.75000
O1714       O  0.42199243  0.63442705  0.68177759    -0.75000
O1715       O  0.37622090  0.57749479  0.65904807    -0.74900
O1716       O  0.46450475  0.63454534  0.64678111    -0.75000
Ni1717     Ni  0.40611905  0.63531370  0.62309571     1.25400
Ni1718     Ni  0.42043235  0.60542516  0.65330425     1.25400
C1719       C  0.47396815  0.65871977  0.63120119     0.87300
C1720       C  0.35433497  0.58206138  0.64905259     0.87200
C1721       C  0.41668662  0.65766733  0.67599722     0.87200
C1722       C  0.40986108  0.58512118  0.59835011     0.87400
O1723       O  0.02974285  0.70190238  0.63886431    -0.74900
O1724       O  0.12201407  0.73532379  0.62516660    -0.75000
O1725       O  0.07563833  0.74462552  0.60441880    -0.75000
O1726       O  0.07844896  0.69531984  0.66267898    -0.75100
O1727       O  0.06513741  0.65351295  0.63512456    -0.75000
O1728       O  0.06103112  0.70395413  0.57526380    -0.75000
O1729       O  0.10679806  0.69278892  0.59799456    -0.74900
O1730       O  0.01851518  0.66155346  0.61025800    -0.75000
Ni1731     Ni  0.07690213  0.72070816  0.63394589     1.25400
Ni1732     Ni  0.06258732  0.67650756  0.60373682     1.25400
C1733       C  0.00905237  0.67626350  0.62583756     0.87300
C1734       C  0.12868491  0.71923990  0.60799275     0.87200
C1735       C  0.06634232  0.73250202  0.58104521     0.87200
C1736       C  0.07315548  0.66677158  0.65869161     0.87400
O1737       O  0.11995237  0.61413377  0.70151288    -0.74900
O1738       O  0.02768040  0.58070249  0.71521565    -0.75000
O1739       O  0.07123937  0.62070789  0.67769959    -0.75000
O1740       O  0.07406332  0.57141085  0.73596160    -0.75100
O1741       O  0.08866857  0.61208368  0.76511464    -0.75000
O1742       O  0.08454741  0.66251482  0.70525294    -0.75000
O1743       O  0.04289324  0.62323775  0.74238676    -0.74900
O1744       O  0.13117767  0.65448467  0.73011629    -0.75000
Ni1745     Ni  0.07279273  0.59532347  0.70643371     1.25400
Ni1746     Ni  0.08710467  0.63952512  0.73664088     1.25400
C1747       C  0.14064238  0.63977424  0.71453757     0.87300
C1748       C  0.02100733  0.59678453  0.73239068     0.87200
C1749       C  0.07652989  0.64925488  0.68168647     0.87200
C1750       C  0.08336063  0.58353752  0.75933490     0.87400
O1751       O  0.19641551  0.65236566  0.72220303    -0.74900
O1752       O  0.28868866  0.71120708  0.70850249    -0.75000
O1753       O  0.24512957  0.70765411  0.74601538    -0.75000
O1754       O  0.24230357  0.65553116  0.68775668    -0.75100
O1755       O  0.22770392  0.68160184  0.65860089    -0.75000
O1756       O  0.23182488  0.73615459  0.71845954    -0.75000
O1757       O  0.27348046  0.73853234  0.68132912    -0.74900
O1758       O  0.18519394  0.68149242  0.69359637    -0.75000
Ni1759     Ni  0.24357533  0.68071535  0.71728324     1.25400
Ni1760     Ni  0.22926804  0.71060729  0.68707313     1.25400
C1761       C  0.17572678  0.65731691  0.70917597     0.87300
C1762       C  0.29536505  0.73396401  0.69132725     0.87200
C1763       C  0.23984105  0.73091192  0.74202711     0.87200
C1764       C  0.23300884  0.65836164  0.66438296     0.87400
O1765       O  0.28662868  0.83034787  0.78484845    -0.74900
O1766       O  0.19435760  0.77149159  0.79854820    -0.75000
O1767       O  0.24073482  0.82717009  0.81929649    -0.75000
O1768       O  0.23792147  0.77505684  0.76103422    -0.75100
O1769       O  0.25123453  0.74656126  0.78858806    -0.75000
O1770       O  0.25533947  0.80110203  0.84845051    -0.75000
O1771       O  0.20957298  0.74416946  0.82571802    -0.74900
O1772       O  0.29785649  0.80122576  0.81345493    -0.75000
Ni1773     Ni  0.23946940  0.80199074  0.78976809     1.25400
Ni1774     Ni  0.25378410  0.77210288  0.81997617     1.25400
C1775       C  0.30731910  0.82539969  0.79787536     0.87300
C1776       C  0.18768678  0.74873414  0.81572184     0.87200
C1777       C  0.25002952  0.82433879  0.84267028     0.87200
C1778       C  0.24321568  0.75180277  0.76502124     0.87400
O1779       O  0.36309585  0.86858180  0.80553542    -0.74900
O1780       O  0.45536544  0.90199572  0.79183650    -0.75000
O1781       O  0.40899087  0.91129797  0.77108556    -0.75000
O1782       O  0.41180015  0.86199683  0.82935210    -0.75100
O1783       O  0.39848394  0.82018665  0.80180049    -0.75000
O1784       O  0.39438152  0.87062220  0.74193487    -0.75000
O1785       O  0.44014671  0.85945648  0.76466906    -0.74900
O1786       O  0.35186475  0.82822924  0.77693215    -0.75000
Ni1787     Ni  0.41025451  0.88738374  0.80061599     1.25400
Ni1788     Ni  0.39593615  0.84317887  0.77041095     1.25400
C1789       C  0.34240347  0.84294219  0.79251052     0.87300
C1790       C  0.46203503  0.88590875  0.77466438     0.87200
C1791       C  0.39969237  0.89916971  0.74771286     0.87200
C1792       C  0.40650260  0.83344735  0.82536680     0.87400
O1793       O  0.45328125  0.78079303  0.86818607    -0.74900
O1794       O  0.36101184  0.74737421  0.88188760    -0.75000
O1795       O  0.40457565  0.78737864  0.84437452    -0.75000
O1796       O  0.40738788  0.73807134  0.90263288    -0.75100
O1797       O  0.42199860  0.77874366  0.93178757    -0.75000
O1798       O  0.41788975  0.82918579  0.87192931    -0.75000
O1799       O  0.37622986  0.78990888  0.90906044    -0.74900
O1800       O  0.46451219  0.82114309  0.89679219    -0.75000
Ni1801     Ni  0.40612278  0.76198910  0.87310645     1.25400
Ni1802     Ni  0.42044057  0.80619018  0.90331582     1.25400
C1803       C  0.47397370  0.80643165  0.88121239     0.87300
C1804       C  0.35434233  0.76345774  0.89906315     0.87200
C1805       C  0.40987175  0.81592801  0.84836213     0.87200
C1806       C  0.41668770  0.75019603  0.92600567     0.87400
O1807       O  0.02974658  0.81902393  0.88887770    -0.74900
O1808       O  0.12201876  0.87786894  0.87517517    -0.75000
O1809       O  0.07845791  0.87431556  0.91268643    -0.75000
O1810       O  0.07563612  0.82218848  0.85443288    -0.75100
O1811       O  0.06103654  0.84825552  0.82527336    -0.75000
O1812       O  0.06514839  0.90281014  0.88512804    -0.75000
O1813       O  0.10680713  0.90519005  0.84800039    -0.74900
O1814       O  0.01852244  0.84814396  0.86026563    -0.75000
Ni1815     Ni  0.07690596  0.84737520  0.88395700     1.25400
Ni1816     Ni  0.06259565  0.87726164  0.85374342     1.25400
C1817       C  0.00905746  0.82397181  0.87584859     0.87300
C1818       C  0.12869262  0.90062383  0.85799943     0.87200
C1819       C  0.07316611  0.89757116  0.90869645     0.87200
C1820       C  0.06634291  0.82501738  0.83105777     0.87400
O1821       O  0.19641563  0.53522785  0.97220017    -0.74900
O1822       O  0.28868747  0.56865221  0.95850328    -0.75000
O1823       O  0.24230998  0.57795085  0.93775537    -0.75000
O1824       O  0.24512255  0.52864593  0.99601586    -0.75100
O1825       O  0.23182651  0.98685165  0.96846782    -0.75000
O1826       O  0.22770385  0.53727951  0.90860061    -0.75000
O1827       O  0.27347392  0.52611825  0.93133080    -0.74900
O1828       O  0.18518910  0.49487818  0.94359502    -0.75000
Ni1829     Ni  0.24357501  0.55403416  0.96728259     1.25400
Ni1830     Ni  0.22926192  0.50983389  0.93707357     1.25400
C1831       C  0.17572518  0.50958924  0.95917303     0.87300
C1832       C  0.29535896  0.55256986  0.94132809     0.87200
C1833       C  0.23301327  0.56582610  0.91438205     0.87200
C1834       C  0.23982949  0.50009721  0.99202874     0.87400
O1835       O  0.11996452  0.99700818  0.95151461    -0.74900
O1836       O  0.02769109  0.93816659  0.96521474    -0.75000
O1837       O  0.07407658  0.99384183  0.98596137    -0.75000
O1838       O  0.07125076  0.94172016  0.92770114    -0.75100
O1839       O  0.08455775  0.91322133  0.95525686    -0.75000
O1840       O  0.08867230  0.96776787  0.51511726    -0.75000
O1841       O  0.04289888  0.91083883  0.99238537    -0.74900
O1842       O  0.13118551  0.96788245  0.98012295    -0.75000
Ni1843     Ni  0.07280476  0.96865846  0.95643409     1.25400
Ni1844     Ni  0.08711149  0.93876574  0.98664381     1.25400
C1845       C  0.14065314  0.99205758  0.96454297     0.87300
C1846       C  0.02101570  0.91540833  0.98238903     0.87200
C1847       C  0.08335605  0.49100322  0.50932494     0.87200
C1848       C  0.07654082  0.91846312  0.93168902     0.87400
O1849       O  0.33052016  0.78648845  0.97220944    -0.74900
O1850       O  0.27170564  0.69422540  0.95851539    -0.75000
O1851       O  0.32736206  0.74061006  0.93775891    -0.75000
O1852       O  0.27524702  0.73777810  0.99602441    -0.75100
O1853       O  0.24669207  0.75102521  0.96846882    -0.75000
O1854       O  0.30123849  0.75515905  0.90860706    -0.75000
O1855       O  0.24432753  0.70937675  0.93134030    -0.74900
O1856       O  0.30133996  0.79766149  0.94361057    -0.75000
Ni1857     Ni  0.30218512  0.73933707  0.96729064     1.25400
Ni1858     Ni  0.27223632  0.75358766  0.93708344     1.25400
C1859       C  0.32553850  0.80715076  0.95918700     0.87300
C1860       C  0.24892586  0.68752093  0.94134227     0.87200
C1861       C  0.32450096  0.74987713  0.91438444     0.87200
C1862       C  0.25195977  0.74303132  0.99203526     0.87400
O1863       O  0.36873384  0.86290804  0.95153997    -0.74900
O1864       O  0.40217703  0.95516005  0.96524283    -0.75000
O1865       O  0.41147089  0.90879967  0.98600250    -0.75000
O1866       O  0.36215785  0.91159668  0.92772041    -0.75100
O1867       O  0.32034640  0.89832383  0.95525995    -0.75000
O1868       O  0.37078093  0.89419455  0.51513521    -0.75000
O1869       O  0.35964260  0.93996681  0.99241049    -0.74900
O1870       O  0.32836142  0.85169948  0.98011411    -0.75000
Ni1871     Ni  0.38755029  0.91005614  0.95646373     1.25400
Ni1872     Ni  0.34333743  0.89576374  0.98665323     1.25400
C1873       C  0.34307812  0.84222979  0.96454810     0.87300
C1874       C  0.38609655  0.96184181  0.98241322     0.87200
C1875       C  0.39933539  0.89950106  0.50936765     0.87200
C1876       C  0.33360887  0.90632485  0.93169888     0.87400
O1877       O  0.31917641  0.52954135  0.86818271    -0.74900
O1878       O  0.37800116  0.62180231  0.88187425    -0.75000
O1879       O  0.37445213  0.57824603  0.84436603    -0.75000
O1880       O  0.32234248  0.57542287  0.90263348    -0.75100
O1881       O  0.34846304  0.56086833  0.93178377    -0.75000
O1882       O  0.40300502  0.56499533  0.87192069    -0.75000
O1883       O  0.40537588  0.60664673  0.90904915    -0.74900
O1884       O  0.34835469  0.51836367  0.89677987    -0.75000
Ni1885     Ni  0.34751664  0.57669169  0.87310074     1.25400
Ni1886     Ni  0.37746281  0.56243638  0.90330668     1.25400
C1887       C  0.32415617  0.50887737  0.88120457     0.87300
C1888       C  0.40078064  0.62850414  0.89904613     0.87200
C1889       C  0.39773755  0.57299006  0.84835416     0.87200
C1890       C  0.32520175  0.56615266  0.92600841     0.87400
O1891       O  0.28096600  0.95311550  0.88885745    -0.74900
O1892       O  0.24752954  0.86086514  0.87515130    -0.75000
O1893       O  0.28754330  0.90442762  0.91267691    -0.75000
O1894       O  0.23823289  0.90722452  0.85439216    -0.75100
O1895       O  0.27892484  0.92183051  0.82526121    -0.75000
O1896       O  0.32935812  0.91770692  0.88513952    -0.75000
O1897       O  0.29006869  0.87606282  0.84798837    -0.74900
O1898       O  0.32133883  0.96432681  0.86028307    -0.75000
Ni1899     Ni  0.26215206  0.90596775  0.88393229     1.25400
Ni1900     Ni  0.30636782  0.92026424  0.85374501     1.25400
C1901       C  0.30661988  0.97379366  0.87584976     0.87300
C1902       C  0.26361398  0.85418632  0.85798341     0.87200
C1903       C  0.31609414  0.90970305  0.90870038     0.87200
C1904       C  0.25036904  0.91652359  0.83102770     0.87400
O1905       O  0.49719508  0.61981878  0.80553523    -0.74900
O1906       O  0.43836298  0.52755909  0.79184483    -0.75000
O1907       O  0.49402422  0.57393361  0.77108514    -0.75000
O1908       O  0.44191823  0.57111824  0.82935224    -0.75100
O1909       O  0.41336871  0.58437389  0.80179806    -0.75000
O1910       O  0.46790552  0.58848951  0.74193429    -0.75000
O1911       O  0.41099010  0.54271845  0.76467136    -0.74900
O1912       O  0.46802077  0.63099919  0.77693598    -0.75000
Ni1913     Ni  0.46885135  0.57266865  0.80061778     1.25400
Ni1914     Ni  0.43890828  0.58692753  0.77041160     1.25400
C1915       C  0.49221801  0.64048348  0.79251265     0.87300
C1916       C  0.41558274  0.52085913  0.77467384     0.87200
C1917       C  0.99116498  0.58320316  0.74771023     0.87200
C1918       C  0.41863363  0.57637800  0.82536385     0.87400
O1919       O  0.03541254  0.69624216  0.78486882    -0.74900
O1920       O  0.06884342  0.78849089  0.79857675    -0.75000
O1921       O  0.07814542  0.74213356  0.81933371    -0.75000
O1922       O  0.02882911  0.74492702  0.76105217    -0.75100
O1923       O  0.48701540  0.73164575  0.78859132    -0.75000
O1924       O  0.03745405  0.72752327  0.84846613    -0.75000
O1925       O  0.02630633  0.77329002  0.82574289    -0.74900
O1926       O  0.99503987  0.68502751  0.81344463    -0.75000
Ni1927     Ni  0.05422338  0.74338890  0.78979511     1.25400
Ni1928     Ni  0.01000880  0.72908912  0.81998435     1.25400
C1929       C  0.00975834  0.67556119  0.79787665     0.87300
C1930       C  0.05276047  0.79516910  0.81574609     0.87200
C1931       C  0.06601087  0.73283242  0.84269820     0.87200
C1932       C  0.00027760  0.73964985  0.76502928     0.87400
O1933       O  0.44763806  0.78644551  0.72219176    -0.74900
O1934       O  0.41419419  0.69419504  0.70848045    -0.75000
O1935       O  0.45421171  0.73775307  0.74600858    -0.75000
O1936       O  0.40490452  0.74056047  0.68772435    -0.75100
O1937       O  0.44559674  0.75516566  0.65859384    -0.75000
O1938       O  0.49602524  0.75102987  0.71847066    -0.75000
O1939       O  0.45673145  0.70939002  0.68131609    -0.74900
O1940       O  0.48801183  0.79765601  0.69361859    -0.75000
Ni1941     Ni  0.42882152  0.73929815  0.71726416     1.25400
Ni1942     Ni  0.47303666  0.75359283  0.68707680     1.25400
C1943       C  0.47329285  0.80712411  0.70918495     0.87300
C1944       C  0.43027600  0.68751557  0.69131048     0.87200
C1945       C  0.48276159  0.74302685  0.74203111     0.87200
C1946       C  0.41704176  0.74986076  0.66436047     0.87400
O1947       O  0.48584979  0.86286467  0.70152165    -0.74900
O1948       O  0.04467049  0.95512856  0.71520589    -0.75000
O1949       O  0.04112141  0.91156958  0.67770161    -0.75000
O1950       O  0.48901424  0.90875036  0.73596749    -0.75100
O1951       O  0.01513729  0.89420194  0.76512043    -0.75000
O1952       O  0.06967756  0.89832397  0.70525734    -0.75000
O1953       O  0.07204847  0.93997793  0.74238188    -0.74900
O1954       O  0.01503062  0.85169324  0.73012122    -0.75000
Ni1955     Ni  0.01418736  0.91001644  0.70643570     1.25400
Ni1956     Ni  0.04413664  0.89576716  0.73664358     1.25400
C1957       C  0.49083218  0.84220342  0.71454548     0.87300
C1958       C  0.06745208  0.96183385  0.73237729     0.87200
C1959       C  0.06440891  0.90631677  0.68169041     0.87200
C1960       C  0.49187543  0.89948573  0.75934327     0.87400
O1961       O  0.20207343  0.52958491  0.61819907    -0.74900
O1962       O  0.23550579  0.62183447  0.63190231    -0.75000
O1963       O  0.24480484  0.57547694  0.65266374    -0.75000
O1964       O  0.19549067  0.57826937  0.59437852    -0.75100
O1965       O  0.15367661  0.56498991  0.62191678    -0.75000
O1966       O  0.20411245  0.56086954  0.68179438    -0.75000
O1967       O  0.19296800  0.60663706  0.65906671    -0.74900
O1968       O  0.16169982  0.51837204  0.64677318    -0.75000
Ni1969     Ni  0.22088425  0.57673181  0.62312308     1.25400
Ni1970     Ni  0.17666888  0.56243473  0.65331082     1.25400
C1971       C  0.17641932  0.50890505  0.63120790     0.87300
C1972       C  0.21942201  0.62851321  0.64907057     0.87200
C1973       C  0.23266788  0.56617626  0.67602769     0.87200
C1974       C  0.16693894  0.57299267  0.59835550     0.87400
O1975       O  0.16386672  0.95315994  0.63887416    -0.74900
O1976       O  0.10504454  0.86089843  0.62517937    -0.75000
O1977       O  0.16070338  0.90727854  0.60442360    -0.75000
O1978       O  0.10859250  0.90445253  0.66268920    -0.75100
O1979       O  0.08003959  0.91770359  0.63513504    -0.75000
O1980       O  0.13458388  0.92183280  0.57527206    -0.75000
O1981       O  0.07767002  0.87605491  0.59800507    -0.74900
O1982       O  0.13468885  0.96433668  0.61027568    -0.75000
Ni1983     Ni  0.13552827  0.90600894  0.63395498     1.25400
Ni1984     Ni  0.10558263  0.92026434  0.60374855     1.25400
C1985       C  0.15888678  0.97382396  0.62585279     0.87300
C1986       C  0.08226506  0.85419716  0.60800685     0.87200
C1987       C  0.15784411  0.91654727  0.58104828     0.87200
C1988       C  0.08530653  0.90970804  0.65869981     0.87400
O1989       O  0.11428708  0.61977504  0.55551786    -0.74900
O1990       O  0.08085639  0.52752669  0.54180821    -0.75000
O1991       O  0.12087031  0.57108915  0.57933429    -0.75000
O1992       O  0.07155606  0.57388464  0.52105082    -0.75100
O1993       O  0.11224875  0.58849470  0.99191997    -0.75000
O1994       O  0.16268528  0.58437236  0.55179618    -0.75000
O1995       O  0.12339517  0.54272772  0.51464415    -0.74900
O1996       O  0.15466076  0.63099110  0.52694298    -0.75000
Ni1997     Ni  0.09547678  0.57262831  0.55059058     1.25400
Ni1998     Ni  0.13969283  0.58692908  0.52040279     1.25400
C1999       C  0.13994080  0.64045608  0.54251036     0.87300
C2000       C  0.09694097  0.52084988  0.52463846     0.87200
C2001       C  0.14942236  0.57636760  0.57535727     0.87200
C2002       C  0.08369277  0.58318606  0.49768679     0.87400
O2003       O  0.15250154  0.69619868  0.53485095    -0.74900
O2004       O  0.21133074  0.78846024  0.54854007    -0.75000
O2005       O  0.20777776  0.74489993  0.51103490    -0.75000
O2006       O  0.15566959  0.74208555  0.56929829    -0.75100
O2007       O  0.18178662  0.72753079  0.59845201    -0.75000
O2008       O  0.23632760  0.73164717  0.53859143    -0.75000
O2009       O  0.23870221  0.77330248  0.57571677    -0.74900
O2010       O  0.18167561  0.68502055  0.56345243    -0.75000
Ni2011     Ni  0.18084353  0.74334957  0.53976763     1.25400
Ni2012     Ni  0.21078595  0.72909305  0.56997662     1.25400
C2013       C  0.15747966  0.67553443  0.54787472     0.87300
C2014       C  0.23410984  0.79516157  0.56571214     0.87200
C2015       C  0.23106234  0.73964190  0.51502482     0.87200
C2016       C  0.15852781  0.73281789  0.59267410     0.87400
O2017       O  0.86872529  0.49700218  0.20153131    -0.74900
O2018       O  0.90217224  0.43819901  0.21523826    -0.75000
O2019       O  0.86215419  0.44173942  0.17771344    -0.75000
O2020       O  0.91146075  0.49385126  0.23599687    -0.75100
O2021       O  0.87076894  0.46775968  0.26512783    -0.75000
O2022       O  0.82034208  0.41319355  0.20525195    -0.75000
O2023       O  0.85963719  0.41085178  0.24240508    -0.74900
O2024       O  0.82835078  0.46783105  0.23010292    -0.75000
Ni2025     Ni  0.88754362  0.46867362  0.20645717     1.25400
Ni2026     Ni  0.84332930  0.43874600  0.23664498     1.25400
C2027       C  0.84306918  0.49202106  0.21453735     0.87300
C2028       C  0.88609215  0.41543467  0.23240809     0.87200
C2029       C  0.83360609  0.41845709  0.18169090     0.87200
C2030       C  0.89933995  0.99100406  0.25935979     0.87400
O2031       O  0.83052916  0.03520326  0.22220345    -0.74900
O2032       O  0.77171473  0.06865035  0.20851742    -0.75000
O2033       O  0.77525927  0.02863695  0.24602332    -0.75000
O2034       O  0.82736797  0.07792659  0.18775605    -0.75100
O2035       O  0.80124243  0.03725388  0.15860478    -0.75000
O2036       O  0.74668502  0.48684047  0.21846358    -0.75000
O2037       O  0.74433400  0.02612181  0.18134178    -0.74900
O2038       O  0.80134428  0.99484922  0.19360673    -0.75000
Ni2039     Ni  0.80219432  0.05401895  0.21728852     1.25400
Ni2040     Ni  0.77224162  0.00981973  0.18708214     1.25400
C2041       C  0.82554438  0.00955899  0.20918099     0.87300
C2042       C  0.74893321  0.05257574  0.19134522     0.87200
C2043       C  0.75196888  0.00009561  0.24203489     0.87200
C2044       C  0.82450567  0.06579972  0.16438023     0.87400
O2045       O  0.98585646  0.11415777  0.45152116    -0.74900
O2046       O  0.54466790  0.08070873  0.46521418    -0.75000
O2047       O  0.98901402  0.07143558  0.48597253    -0.75000
O2048       O  0.54112543  0.12071925  0.42770462    -0.75100
O2049       O  0.56968727  0.16252267  0.45525740    -0.75000
O2050       O  0.51513816  0.11211076  0.01512166    -0.75000
O2051       O  0.57204760  0.12323830  0.49238898    -0.74900
O2052       O  0.51504264  0.15451495  0.48011489    -0.75000
Ni2053     Ni  0.51418944  0.09534059  0.45643975     1.25400
Ni2054     Ni  0.54414234  0.13954207  0.48664406     1.25400
C2055       C  0.99084278  0.13980450  0.46454037     0.87300
C2056       C  0.56744891  0.09678440  0.48238660     0.87200
C2057       C  0.99187538  0.08356466  0.00934610     0.87200
C2058       C  0.56441690  0.14926032  0.43169152     0.87400
O2059       O  0.94764783  0.15236265  0.47218558    -0.74900
O2060       O  0.91419809  0.21116263  0.45847804    -0.75000
O2061       O  0.90491141  0.15551023  0.43771999    -0.75000
O2062       O  0.95421964  0.20762669  0.49600207    -0.75100
O2063       O  0.99603015  0.23617242  0.46846233    -0.75000
O2064       O  0.94560251  0.18160166  0.40858842    -0.75000
O2065       O  0.95673127  0.23850964  0.43130925    -0.74900
O2066       O  0.98802188  0.18153363  0.44361352    -0.75000
Ni2067     Ni  0.92882878  0.18069003  0.46725922     1.25400
Ni2068     Ni  0.97304175  0.21061736  0.43707023     1.25400
C2069       C  0.97330342  0.15734342  0.45917967     0.87300
C2070       C  0.93027611  0.23392639  0.44130708     0.87200
C2071       C  0.91704802  0.15834904  0.41435558     0.87200
C2072       C  0.98276733  0.23090895  0.49202308     0.87400
O2073       O  0.61428953  0.48569069  0.30551645    -0.74900
O2074       O  0.58087615  0.04450667  0.29180992    -0.75000
O2075       O  0.57155871  0.48885377  0.27105242    -0.75000
O2076       O  0.62088928  0.04095570  0.32933290    -0.75100
O2077       O  0.66270297  0.06949494  0.30179415    -0.75000
O2078       O  0.61226691  0.01493322  0.24191953    -0.75000
O2079       O  0.62341177  0.07184639  0.26464212    -0.74900
O2080       O  0.65467974  0.01485200  0.27694358    -0.75000
Ni2081     Ni  0.59549504  0.01402444  0.30058984     1.25400
Ni2082     Ni  0.63971073  0.04394436  0.27040161     1.25400
C2083       C  0.63994293  0.49066519  0.29250884     0.87300
C2084       C  0.59695998  0.06727042  0.27463971     0.87200
C2085       C  0.58369408  0.49169166  0.24768842     0.87200
C2086       C  0.64944051  0.06423403  0.32535527     0.87400
O2087       O  0.65249786  0.44748163  0.28484903    -0.74900
O2088       O  0.71131978  0.41404389  0.29853773    -0.75000
O2089       O  0.65566293  0.40476064  0.31929792    -0.75000
O2090       O  0.70776993  0.45405335  0.26103118    -0.75100
O2091       O  0.73632614  0.49585651  0.28858554    -0.75000
O2092       O  0.68178453  0.44543390  0.34844921    -0.75000
O2093       O  0.73869630  0.45657378  0.32571276    -0.74900
O2094       O  0.68167849  0.48783580  0.31344703    -0.75000
Ni2095     Ni  0.68083595  0.42866995  0.28976556     1.25400
Ni2096     Ni  0.71078432  0.47287018  0.31997189     1.25400
C2097       C  0.65747970  0.47312554  0.29787063     0.87300
C2098       C  0.73410050  0.43012107  0.31570906     0.87200
C2099       C  0.65852345  0.41688709  0.34267275     0.87200
C2100       C  0.73105769  0.48259500  0.26501918     0.87400
O2101       O  0.70208058  0.16366931  0.36819961    -0.74900
O2102       O  0.73551686  0.10485720  0.38190431    -0.75000
O2103       O  0.69550427  0.10840579  0.34437778    -0.75000
O2104       O  0.74480898  0.16050895  0.40266850    -0.75100
O2105       O  0.70411307  0.13441480  0.43179520    -0.75000
O2106       O  0.65368866  0.07986200  0.37191331    -0.75000
O2107       O  0.69297695  0.07750797  0.40906601    -0.74900
O2108       O  0.66170330  0.13449879  0.39676899    -0.75000
Ni2109     Ni  0.72089355  0.13533601  0.37312485     1.25400
Ni2110     Ni  0.67667519  0.10540790  0.40330875     1.25400
C2111       C  0.67642469  0.15868948  0.38120479     0.87300
C2112       C  0.71943323  0.08209069  0.39907124     0.87200
C2113       C  0.66695443  0.08512676  0.34835350     0.87200
C2114       C  0.73266910  0.15766668  0.42603142     0.87400
O2115       O  0.66387110  0.20187521  0.38886361    -0.74900
O2116       O  0.60504814  0.23531317  0.37517976    -0.75000
O2117       O  0.60860253  0.19530647  0.41268692    -0.75000
O2118       O  0.66070117  0.24459371  0.35441443    -0.75100
O2119       O  0.63457616  0.20391784  0.32526605    -0.75000
O2120       O  0.58004155  0.15350187  0.38513521    -0.75000
O2121       O  0.57766778  0.19278188  0.34800703    -0.74900
O2122       O  0.63468551  0.16151797  0.36026978    -0.75000
Ni2123     Ni  0.63553259  0.22068703  0.38394944     1.25400
Ni2124     Ni  0.60557959  0.17648449  0.35374621     1.25400
C2125       C  0.65888610  0.17622970  0.37584341     0.87300
C2126       C  0.58226575  0.21923543  0.35801038     0.87200
C2127       C  0.58531312  0.16676470  0.40870042     0.87200
C2128       C  0.65783716  0.23246512  0.33103948     0.87400
O2129       O  0.81918743  0.28081644  0.11818589    -0.74900
O2130       O  0.87801148  0.24738148  0.13187574    -0.75000
O2131       O  0.82235659  0.23810052  0.15263807    -0.75000
O2132       O  0.87445823  0.28738686  0.09436557    -0.75100
O2133       O  0.90301729  0.32919301  0.12191637    -0.75000
O2134       O  0.84847951  0.27877852  0.18178480    -0.75000
O2135       O  0.90538990  0.28991392  0.15904774    -0.74900
O2136       O  0.84837149  0.32117606  0.14677824    -0.75000
Ni2137     Ni  0.84752702  0.26200651  0.12310291     1.25400
Ni2138     Ni  0.87747792  0.30621083  0.15330499     1.25400
C2139       C  0.82417058  0.30646269  0.13120516     0.87300
C2140       C  0.90079216  0.26345933  0.14904651     0.87200
C2141       C  0.82521838  0.25023107  0.17601111     0.87200
C2142       C  0.89774619  0.31593058  0.09835132     0.87400
O2143       O  0.78097272  0.31901791  0.13884997    -0.74900
O2144       O  0.74752934  0.37782542  0.12514832    -0.75000
O2145       O  0.73823752  0.32217400  0.10438587    -0.75000
O2146       O  0.78754637  0.37428005  0.16267119    -0.75100
O2147       O  0.82935860  0.40282584  0.13513299    -0.75000
O2148       O  0.77892908  0.34826623  0.07525488    -0.75000
O2149       O  0.79006487  0.40517376  0.09798223    -0.74900
O2150       O  0.82134648  0.34818894  0.11027787    -0.75000
Ni2151     Ni  0.76215593  0.34734854  0.13392650     1.25400
Ni2152     Ni  0.80637007  0.37727659  0.10373882     1.25400
C2153       C  0.80662865  0.32399933  0.12584340     0.87300
C2154       C  0.76361015  0.40059131  0.10797987     0.87200
C2155       C  0.75037357  0.32501521  0.08102072     0.87200
C2156       C  0.81609474  0.39756163  0.15869345     0.87400
O2157       O  0.53540811  0.33035002  0.03486149    -0.74900
O2158       O  0.56884300  0.27153783  0.04857230    -0.75000
O2159       O  0.52883042  0.27508430  0.01104429    -0.75000
O2160       O  0.57813665  0.32719243  0.06933189    -0.75100
O2161       O  0.53744182  0.30110158  0.09846013    -0.75000
O2162       O  0.98701514  0.24654286  0.03858075    -0.75000
O2163       O  0.52630419  0.24419232  0.07573564    -0.74900
O2164       O  0.49503135  0.30118291  0.06343245    -0.75000
Ni2165     Ni  0.55422031  0.30201674  0.03978983     1.25400
Ni2166     Ni  0.51000273  0.27209229  0.06997517     1.25400
C2167       C  0.50975188  0.32537191  0.04786627     0.87300
C2168       C  0.55275885  0.24877283  0.06574112     0.87200
C2169       C  0.50028014  0.25180511  0.01502144     0.87200
C2170       C  0.56599834  0.32435188  0.09269545     0.87400
O2171       O  0.99719563  0.36855596  0.05552157    -0.74900
O2172       O  0.93836633  0.40198516  0.04183632    -0.75000
O2173       O  0.94192478  0.36198113  0.07934391    -0.75000
O2174       O  0.99402181  0.41127135  0.02107089    -0.75100
O2175       O  0.96789987  0.37059355  0.49192373    -0.75000
O2176       O  0.91336719  0.32017488  0.05179290    -0.75000
O2177       O  0.91098894  0.35945245  0.01466419    -0.74900
O2178       O  0.96801316  0.32819706  0.02692809    -0.75000
Ni2179     Ni  0.96885378  0.38736345  0.05060625     1.25400
Ni2180     Ni  0.93890405  0.34315913  0.02040387     1.25400
C2181       C  0.99221311  0.34291004  0.04250200     0.87300
C2182       C  0.91558350  0.38590525  0.02466640     0.87200
C2183       C  0.91863863  0.33343788  0.07535846     0.87200
C2184       C  0.49116062  0.39914152  0.99769655     0.87400
O2185       O  0.78661158  0.44744595  0.03484747    -0.74900
O2186       O  0.69434265  0.41402954  0.04855336    -0.75000
O2187       O  0.73790442  0.45403003  0.01103677    -0.75000
O2188       O  0.74072051  0.40472623  0.06929778    -0.75100
O2189       O  0.75533252  0.44540003  0.09845086    -0.75000
O2190       O  0.75122148  0.49583887  0.03859013    -0.75000
O2191       O  0.70956412  0.45656684  0.07572367    -0.74900
O2192       O  0.79784414  0.48779709  0.06345292    -0.75000
Ni2193     Ni  0.73945327  0.42864229  0.03977022     1.25400
Ni2194     Ni  0.75377371  0.47284551  0.06997778     1.25400
C2195       C  0.80730498  0.47308617  0.04787255     0.87300
C2196       C  0.68767466  0.43011617  0.06572716     0.87200
C2197       C  0.74320101  0.48257875  0.01502336     0.87200
C2198       C  0.75002155  0.41685334  0.09267059     0.87400
O2199       O  0.86307954  0.48568356  0.05553362    -0.74900
O2200       O  0.95536207  0.04454560  0.04184155    -0.75000
O2201       O  0.91179975  0.04098551  0.07935424    -0.75000
O2202       O  0.90897101  0.48885814  0.02108609    -0.75100
O2203       O  0.89437781  0.01493000  0.49194055    -0.75000
O2204       O  0.89848598  0.06947843  0.05179782    -0.75000
O2205       O  0.94014664  0.07186532  0.01466891    -0.74900
O2206       O  0.85186337  0.01481158  0.02693466    -0.75000
Ni2207     Ni  0.91025050  0.01404795  0.05062295     1.25400
Ni2208     Ni  0.89593559  0.04393312  0.02041203     1.25400
C2209       C  0.84238793  0.49062877  0.04250629     0.87300
C2210       C  0.96203365  0.06730138  0.02466710     0.87200
C2211       C  0.90650444  0.06423899  0.07536549     0.87200
C2212       C  0.89967287  0.49168567  0.99771183     0.87400
O2213       O  0.95328636  0.16367537  0.11818345    -0.74900
O2214       O  0.86101648  0.10481937  0.13188485    -0.75000
O2215       O  0.90739437  0.16049997  0.15263053    -0.75000
O2216       O  0.90457960  0.10838199  0.09437092    -0.75100
O2217       O  0.91789453  0.07988928  0.12192625    -0.75000
O2218       O  0.92200033  0.13443379  0.18178557    -0.75000
O2219       O  0.87623336  0.07749937  0.15905585    -0.74900
O2220       O  0.96451560  0.13455538  0.14679130    -0.75000
Ni2221     Ni  0.90612776  0.13531826  0.12310358     1.25400
Ni2222     Ni  0.92044392  0.10543268  0.15331308     1.25400
C2223       C  0.97397762  0.15872958  0.13121116     0.87300
C2224       C  0.85434557  0.08206338  0.14905919     0.87200
C2225       C  0.91669168  0.15767121  0.17600418     0.87200
C2226       C  0.90987559  0.08512974  0.09835950     0.87400
O2227       O  0.52975256  0.20191218  0.13887433    -0.74900
O2228       O  0.62202311  0.23533593  0.12517061    -0.75000
O2229       O  0.57564264  0.24463512  0.10442635    -0.75000
O2230       O  0.57846201  0.19533112  0.16268570    -0.75100
O2231       O  0.56514805  0.15352424  0.13513072    -0.75000
O2232       O  0.56103652  0.20396391  0.07527136    -0.75000
O2233       O  0.60680574  0.19279982  0.09799959    -0.74900
O2234       O  0.51852411  0.16156396  0.11026683    -0.75000
Ni2235     Ni  0.57691141  0.22071900  0.13395299     1.25400
Ni2236     Ni  0.56259555  0.17651834  0.10374378     1.25400
C2237       C  0.50906097  0.17627326  0.12584737     0.87300
C2238       C  0.62869422  0.21925149  0.10799645     0.87200
C2239       C  0.56634499  0.23251038  0.08105220     0.87200
C2240       C  0.57316803  0.16678259  0.15869806     0.87400
O2241       O  0.61996470  0.11413829  0.20151024    -0.74900
O2242       O  0.52769326  0.08070652  0.21521586    -0.75000
O2243       O  0.57125233  0.12071715  0.17770176    -0.75000
O2244       O  0.57407708  0.07141158  0.23595635    -0.75100
O2245       O  0.58868235  0.11208033  0.26511390    -0.75000
O2246       O  0.58456140  0.16252092  0.20525920    -0.75000
O2247       O  0.54290687  0.12323817  0.24239119    -0.74900
O2248       O  0.63119130  0.15448544  0.23011835    -0.75000
Ni2249     Ni  0.57280572  0.09532843  0.20643210     1.25400
Ni2250     Ni  0.58711856  0.13952609  0.23664402     1.25400
C2251       C  0.64065560  0.13977682  0.21453809     0.87300
C2252       C  0.52102124  0.09678624  0.23239332     0.87200
C2253       C  0.57654315  0.14926426  0.18169089     0.87200
C2254       C  0.58337490  0.08353461  0.25933076     0.87400
O2255       O  0.69642830  0.15236946  0.22220616    -0.74900
O2256       O  0.78870162  0.21121399  0.20850723    -0.75000
O2257       O  0.74513917  0.20765966  0.24601759    -0.75000
O2258       O  0.74231967  0.15553489  0.18776346    -0.75100
O2259       O  0.72772084  0.18160280  0.15860390    -0.75000
O2260       O  0.73183023  0.23615455  0.21845913    -0.75000
O2261       O  0.77349152  0.23853674  0.18133286    -0.74900
O2262       O  0.68520580  0.18149095  0.19359437    -0.75000
Ni2263     Ni  0.74358838  0.18072040  0.21728748     1.25400
Ni2264     Ni  0.72927949  0.21060815  0.18707396     1.25400
C2265       C  0.67573981  0.15731824  0.20917632     0.87300
C2266       C  0.79537632  0.23397047  0.19133155     0.87200
C2267       C  0.73984580  0.23091339  0.24202734     0.87200
C2268       C  0.73302512  0.15836285  0.16438803     0.87400
O2269       O  0.78661825  0.33034563  0.28484535    -0.74900
O2270       O  0.69434728  0.27148643  0.29854346    -0.75000
O2271       O  0.74072127  0.32716832  0.31928948    -0.75000
O2272       O  0.73791465  0.27505311  0.26103225    -0.75100
O2273       O  0.75123215  0.24656330  0.28858888    -0.75000
O2274       O  0.75532473  0.30110295  0.34844757    -0.75000
O2275       O  0.70956479  0.24416702  0.32571434    -0.74900
O2276       O  0.79784701  0.30122923  0.31345760    -0.75000
Ni2277     Ni  0.73945905  0.30198746  0.28976382     1.25400
Ni2278     Ni  0.75377519  0.27210400  0.31997561     1.25400
C2279       C  0.80730912  0.32539992  0.29787582     0.87300
C2280       C  0.68767745  0.24872992  0.31571723     0.87200
C2281       C  0.75001502  0.32433996  0.34266465     0.87200
C2282       C  0.74321392  0.25180253  0.26502119     0.87400
O2283       O  0.86308580  0.36857815  0.30553879    -0.74900
O2284       O  0.95535483  0.40199191  0.29183751    -0.75000
O2285       O  0.90897964  0.41129809  0.27109127    -0.75000
O2286       O  0.91178932  0.36198805  0.32935077    -0.75100
O2287       O  0.89847138  0.32018078  0.30179521    -0.75000
O2288       O  0.89437051  0.37062655  0.24193624    -0.75000
O2289       O  0.94013495  0.35945599  0.26466586    -0.74900
O2290       O  0.85185318  0.32822975  0.27693049    -0.75000
Ni2291     Ni  0.91024400  0.38737947  0.30061846     1.25400
Ni2292     Ni  0.89592453  0.34317854  0.27040867     1.25400
C2293       C  0.84239336  0.34294126  0.29251031     0.87300
C2294       C  0.96202416  0.38590744  0.27466299     0.87200
C2295       C  0.89968106  0.39917366  0.24771822     0.87200
C2296       C  0.90649089  0.33343790  0.32536291     0.87400
O2297       O  0.95327252  0.28078251  0.36817669    -0.74900
O2298       O  0.86100343  0.24736122  0.38188313    -0.75000
O2299       O  0.90456395  0.28736732  0.34436808    -0.75000
O2300       O  0.90738383  0.23806024  0.40262550    -0.75100
O2301       O  0.92199283  0.27873164  0.43178071    -0.75000
O2302       O  0.91788029  0.32917387  0.37192399    -0.75000
O2303       O  0.87622247  0.28989650  0.40905549    -0.74900
O2304       O  0.96450410  0.32113098  0.39678466    -0.75000
Ni2305     Ni  0.90611425  0.26197740  0.37309952     1.25400
Ni2306     Ni  0.92043274  0.30617787  0.40330960     1.25400
C2307       C  0.97396482  0.30642051  0.38120407     0.87300
C2308       C  0.85433362  0.26344490  0.39905887     0.87200
C2309       C  0.90986055  0.31591648  0.34835648     0.87200
C2310       C  0.91668492  0.25018584  0.42599847     0.87400
O2311       O  0.52973918  0.31901579  0.38886928    -0.74900
O2312       O  0.62201020  0.37786832  0.37516875    -0.75000
O2313       O  0.57844604  0.37430930  0.41267824    -0.75000
O2314       O  0.57563298  0.32218587  0.35442668    -0.75100
O2315       O  0.56102833  0.34824799  0.32526613    -0.75000
O2316       O  0.56513371  0.40280101  0.38511899    -0.75000
O2317       O  0.60679451  0.40518496  0.34799261    -0.74900
O2318       O  0.51851185  0.34813298  0.36025652    -0.75000
Ni2319     Ni  0.57689815  0.34737074  0.38394964     1.25400
Ni2320     Ni  0.56258391  0.37725330  0.35373496     1.25400
C2321       C  0.50904792  0.32396129  0.37583935     0.87300
C2322       C  0.62868161  0.40062238  0.35799266     0.87200
C2323       C  0.57315258  0.39756329  0.40868756     0.87200
C2324       C  0.56633805  0.32501190  0.33105146     0.87400
O2325       O  0.69642864  0.03523885  0.47220577    -0.74900
O2326       O  0.78869925  0.06866237  0.45850341    -0.75000
O2327       O  0.74231912  0.07795822  0.43775594    -0.75000
O2328       O  0.74513830  0.02866025  0.49602027    -0.75100
O2329       O  0.73181314  0.48683979  0.46846119    -0.75000
O2330       O  0.72771105  0.03728342  0.40860452    -0.75000
O2331       O  0.77348307  0.02612519  0.43133392    -0.74900
O2332       O  0.68520019  0.99488630  0.44360325    -0.75000
Ni2333     Ni  0.74358767  0.05404531  0.46728508     1.25400
Ni2334     Ni  0.72927222  0.00984174  0.43707923     1.25400
C2335       C  0.67573695  0.00959820  0.45918095     0.87300
C2336       C  0.79537038  0.05257775  0.44132903     0.87200
C2337       C  0.73302039  0.06583023  0.41438365     0.87200
C2338       C  0.73984489  0.00011173  0.49203479     0.87400
O2339       O  0.61995323  0.49700027  0.45150389    -0.74900
O2340       O  0.52767879  0.43816097  0.46520325    -0.75000
O2341       O  0.57406492  0.49383648  0.48594935    -0.75000
O2342       O  0.57123789  0.44171288  0.42769062    -0.75100
O2343       O  0.58454438  0.41321438  0.45524718    -0.75000
O2344       O  0.58865838  0.46776176  0.01510647    -0.75000
O2345       O  0.54288551  0.41083246  0.49237407    -0.74900
O2346       O  0.63117215  0.46787447  0.48011386    -0.75000
Ni2347     Ni  0.57279279  0.46865205  0.45642288     1.25400
Ni2348     Ni  0.58709792  0.43875898  0.48663367     1.25400
C2349       C  0.64064048  0.49204924  0.46453299     0.87300
C2350       C  0.52100230  0.41540205  0.48237707     0.87200
C2351       C  0.58336848  0.99100888  0.00933593     0.87200
C2352       C  0.57652737  0.41845601  0.43167941     0.87400
O2353       O  0.83051620  0.28648604  0.47220267    -0.74900
O2354       O  0.77170241  0.19422118  0.45851628    -0.75000
O2355       O  0.82735668  0.24060322  0.43775647    -0.75000
O2356       O  0.77524602  0.23777746  0.49602253    -0.75100
O2357       O  0.74668929  0.25102246  0.46846716    -0.75000
O2358       O  0.80122971  0.25514648  0.40860314    -0.75000
O2359       O  0.74432018  0.20936902  0.43134257    -0.74900
O2360       O  0.80133431  0.29765457  0.44360199    -0.75000
Ni2361     Ni  0.80218189  0.23933378  0.46728805     1.25400
Ni2362     Ni  0.77223008  0.25357997  0.43708038     1.25400
C2363       C  0.82553249  0.30714609  0.45917761     0.87300
C2364       C  0.74892088  0.18751473  0.44134500     0.87200
C2365       C  0.82449365  0.24986625  0.41438028     0.87200
C2366       C  0.75195900  0.24303060  0.49203345     0.87400
O2367       O  0.86872485  0.36290389  0.45152812    -0.74900
O2368       O  0.90216555  0.45515501  0.46523179    -0.75000
O2369       O  0.91146019  0.40879441  0.48599078    -0.75000
O2370       O  0.86214724  0.41159241  0.42770854    -0.75100
O2371       O  0.82033569  0.39831882  0.45524825    -0.75000
O2372       O  0.87076947  0.39418857  0.01512322    -0.75000
O2373       O  0.85963071  0.43996054  0.49239924    -0.74900
O2374       O  0.82835179  0.35169448  0.48010191    -0.75000
Ni2375     Ni  0.88753981  0.41005148  0.45645194     1.25400
Ni2376     Ni  0.84332661  0.39575804  0.48664119     1.25400
C2377       C  0.84307076  0.34222517  0.46453638     0.87300
C2378       C  0.88608559  0.46183626  0.48240158     0.87200
C2379       C  0.89932534  0.39949522  0.00935595     0.87200
C2380       C  0.83359813  0.40632135  0.43168666     0.87400
O2381       O  0.81918322  0.02953622  0.36818669    -0.74900
O2382       O  0.87801170  0.12179735  0.38187221    -0.75000
O2383       O  0.87445924  0.07823624  0.34436760    -0.75000
O2384       O  0.82235222  0.07542310  0.40263314    -0.75100
O2385       O  0.84847207  0.06087120  0.43178620    -0.75000
O2386       O  0.90301021  0.06498455  0.37192364    -0.75000
O2387       O  0.90538639  0.10664235  0.40904788    -0.74900
O2388       O  0.84835912  0.01835965  0.39678754    -0.75000
Ni2389     Ni  0.84752537  0.07668674  0.37310134     1.25400
Ni2390     Ni  0.87747007  0.06243230  0.40330959     1.25400
C2391       C  0.82416089  0.00887242  0.38121114     0.87300
C2392       C  0.90079178  0.12850030  0.39904423     0.87200
C2393       C  0.89774379  0.07297811  0.34835654     0.87200
C2394       C  0.82521248  0.06615658  0.42600893     0.87400
O2395       O  0.78095928  0.45312048  0.38884971    -0.74900
O2396       O  0.74751721  0.36086922  0.37514341    -0.75000
O2397       O  0.78753450  0.40443040  0.41266749    -0.75000
O2398       O  0.73822294  0.40723103  0.35438499    -0.75100
O2399       O  0.77891317  0.42183563  0.32525255    -0.75000
O2400       O  0.82934706  0.41770638  0.38512832    -0.75000
O2401       O  0.79005361  0.37606481  0.34797767    -0.74900
O2402       O  0.82133094  0.46433007  0.36027439    -0.75000
Ni2403     Ni  0.76214275  0.40597261  0.38392416     1.25400
Ni2404     Ni  0.80635637  0.42026681  0.35373511     1.25400
C2405       C  0.80661377  0.47379854  0.37584214     0.87300
C2406       C  0.76359998  0.35418900  0.35797460     0.87200
C2407       C  0.81608432  0.40970265  0.40868941     0.87200
C2408       C  0.75035871  0.41652979  0.33101981     0.87400
O2409       O  0.99719990  0.11981339  0.30553966    -0.74900
O2410       O  0.93837739  0.02755250  0.29184474    -0.75000
O2411       O  0.99403756  0.07393354  0.27108831    -0.75000
O2412       O  0.94192453  0.07110677  0.32935451    -0.75100
O2413       O  0.91337384  0.08436049  0.30180014    -0.75000
O2414       O  0.96791599  0.08848558  0.24193698    -0.75000
O2415       O  0.91100191  0.04270933  0.26467191    -0.74900
O2416       O  0.96802356  0.13099032  0.27693966    -0.75000
Ni2417     Ni  0.96886125  0.07266284  0.30062020     1.25400
Ni2418     Ni  0.93891578  0.08691846  0.27041380     1.25400
C2419       C  0.99221979  0.14047689  0.29251660     0.87300
C2420       C  0.91559694  0.02085101  0.27467332     0.87200
C2421       C  0.49117781  0.08320312  0.24771284     0.87200
C2422       C  0.91863980  0.07636487  0.32536593     0.87400
O2423       O  0.53541177  0.19623517  0.28487220    -0.74900
O2424       O  0.56883981  0.28848402  0.29857464    -0.75000
O2425       O  0.57814316  0.24212880  0.31933596    -0.75000
O2426       O  0.52882611  0.24491846  0.26105243    -0.75100
O2427       O  0.98701298  0.23164017  0.28859134    -0.75000
O2428       O  0.53745064  0.22751732  0.34846728    -0.75000
O2429       O  0.52630384  0.27328410  0.32574180    -0.74900
O2430       O  0.49503712  0.18502066  0.31344568    -0.75000
Ni2431     Ni  0.55422092  0.24338182  0.28979610     1.25400
Ni2432     Ni  0.51000581  0.22908268  0.31998467     1.25400
C2433       C  0.50975822  0.17555457  0.29787950     0.87300
C2434       C  0.55275537  0.29516158  0.31574305     0.87200
C2435       C  0.56600706  0.23282712  0.34270048     0.87200
C2436       C  0.50027627  0.23964510  0.26503077     0.87400
O2437       O  0.94764034  0.28645125  0.22219090    -0.74900
O2438       O  0.91419788  0.19420119  0.20848375    -0.75000
O2439       O  0.95421423  0.23775925  0.24601008    -0.75000
O2440       O  0.90490867  0.24056564  0.18772366    -0.75100
O2441       O  0.94560253  0.25517119  0.15859472    -0.75000
O2442       O  0.99602780  0.25103323  0.21847272    -0.75000
O2443       O  0.95673501  0.20939509  0.18131917    -0.74900
O2444       O  0.98801632  0.29766136  0.19362030    -0.75000
Ni2445     Ni  0.92882469  0.23930416  0.21726495     1.25400
Ni2446     Ni  0.97304079  0.25359783  0.18707885     1.25400
C2447       C  0.97329496  0.30712957  0.20918467     0.87300
C2448       C  0.93028004  0.18752060  0.19131490     0.87200
C2449       C  0.98276306  0.24302880  0.24203297     0.87200
C2450       C  0.91704669  0.24986628  0.16435997     0.87400
O2451       O  0.98584666  0.36286831  0.20151945    -0.74900
O2452       O  0.54465710  0.45513404  0.21520636    -0.75000
O2453       O  0.54111571  0.41157896  0.17770062    -0.75000
O2454       O  0.98900260  0.40874963  0.23596564    -0.75100
O2455       O  0.51512869  0.39420587  0.26511933    -0.75000
O2456       O  0.56967425  0.39833674  0.20525655    -0.75000
O2457       O  0.57203851  0.43998735  0.24238205    -0.74900
O2458       O  0.51503010  0.35170126  0.23011959    -0.75000
Ni2459     Ni  0.51417894  0.41002083  0.20643457     1.25400
Ni2460     Ni  0.54413127  0.39577596  0.23664280     1.25400
C2461       C  0.99083228  0.34220931  0.21454364     0.87300
C2462       C  0.56743894  0.46184086  0.23237827     0.87200
C2463       C  0.56440482  0.40632812  0.18168973     0.87200
C2464       C  0.99186552  0.39948533  0.25934199     0.87400
O2465       O  0.70208004  0.02958117  0.11820660    -0.74900
O2466       O  0.73551932  0.12183198  0.13191008    -0.75000
O2467       O  0.74481496  0.07547144  0.15267071    -0.75000
O2468       O  0.69550055  0.07826852  0.09438781    -0.75100
O2469       O  0.65368861  0.06499271  0.12192776    -0.75000
O2470       O  0.70412408  0.06086601  0.18180274    -0.75000
O2471       O  0.69298420  0.10663711  0.15907716    -0.74900
O2472       O  0.66170785  0.01837052  0.14678154    -0.75000
Ni2473     Ni  0.72089437  0.07672859  0.12313096     1.25400
Ni2474     Ni  0.67668108  0.06243426  0.15332039     1.25400
C2475       C  0.67642626  0.00890266  0.13121487     0.87300
C2476       C  0.71943819  0.12851292  0.14907895     0.87200
C2477       C  0.73267944  0.06617135  0.17603523     0.87200
C2478       C  0.66694972  0.07299503  0.09836583     0.87400
O2479       O  0.66386058  0.45316356  0.13887035    -0.74900
O2480       O  0.60503462  0.36090141  0.12518147    -0.75000
O2481       O  0.66069367  0.40727684  0.10442365    -0.75000
O2482       O  0.60858607  0.40446051  0.16268819    -0.75100
O2483       O  0.58003465  0.41771224  0.13513295    -0.75000
O2484       O  0.63457373  0.42182797  0.07526983    -0.75000
O2485       O  0.57765953  0.37605724  0.09800704    -0.74900
O2486       O  0.63468456  0.46433902  0.11026891    -0.75000
Ni2487     Ni  0.63552014  0.40601210  0.13395443     1.25400
Ni2488     Ni  0.60557519  0.42026639  0.10374623     1.25400
C2489       C  0.65888114  0.47382619  0.12584598     0.87300
C2490       C  0.58225420  0.35419911  0.10800906     0.87200
C2491       C  0.65783373  0.41654135  0.08104782     0.87200
C2492       C  0.58530185  0.40971782  0.15869873     0.87400
O2493       O  0.61429604  0.11977918  0.05552755    -0.74900
O2494       O  0.58086875  0.02753150  0.04181940    -0.75000
O2495       O  0.62088208  0.07109480  0.07934559    -0.75000
O2496       O  0.57156721  0.07388840  0.02106103    -0.75100
O2497       O  0.61226051  0.08849887  0.49193072    -0.75000
O2498       O  0.66269701  0.08437811  0.05180757    -0.75000
O2499       O  0.62340786  0.04273287  0.01465578    -0.74900
O2500       O  0.65467057  0.13099592  0.02695353    -0.75000
Ni2501     Ni  0.59548774  0.07263289  0.05060135     1.25400
Ni2502     Ni  0.63970425  0.08693408  0.02041395     1.25400
C2503       C  0.63994891  0.14046013  0.04251932     0.87300
C2504       C  0.59695333  0.02085528  0.02465059     0.87200
C2505       C  0.64943343  0.07637254  0.07536833     0.87200
C2506       C  0.58370367  0.08319009  0.99769704     0.87400
O2507       O  0.65250566  0.19620116  0.03485603    -0.74900
O2508       O  0.71133395  0.28846423  0.04853838    -0.75000
O2509       O  0.70777881  0.24490107  0.01103515    -0.75000
O2510       O  0.65567486  0.24209149  0.06930029    -0.75100
O2511       O  0.68179560  0.22754223  0.09845468    -0.75000
O2512       O  0.73633032  0.23164986  0.03859088    -0.75000
O2513       O  0.73870989  0.27330964  0.07571289    -0.74900
O2514       O  0.68168183  0.18502738  0.06345888    -0.75000
Ni2515     Ni  0.68084672  0.24335282  0.03976893     1.25400
Ni2516     Ni  0.71079231  0.22910012  0.06997786     1.25400
C2517       C  0.65748493  0.17553873  0.04788143     0.87300
C2518       C  0.73411568  0.29516705  0.06570897     0.87200
C2519       C  0.73106313  0.23964293  0.01502478     0.87200
C2520       C  0.65853561  0.23282809  0.09267618     0.87400
O2521       O  0.86872534  0.49700216  0.70153127    -0.74900
O2522       O  0.90217228  0.43819900  0.71523826    -0.75000
O2523       O  0.86215426  0.44173942  0.67771331    -0.75000
O2524       O  0.91146079  0.49385128  0.73599681    -0.75100
O2525       O  0.87076900  0.46775968  0.76512779    -0.75000
O2526       O  0.82034217  0.41319357  0.70525181    -0.75000
O2527       O  0.85963720  0.41085175  0.74240501    -0.74900
O2528       O  0.82835082  0.46783107  0.73010294    -0.75000
Ni2529     Ni  0.88754361  0.46867359  0.70645711     1.25400
Ni2530     Ni  0.84332933  0.43874603  0.73664497     1.25400
C2531       C  0.84306917  0.49202109  0.71453730     0.87300
C2532       C  0.88609221  0.41543465  0.73240814     0.87200
C2533       C  0.83360586  0.41845700  0.68169116     0.87200
C2534       C  0.89933960  0.99100374  0.75935962     0.87400
O2535       O  0.83052919  0.03520333  0.72220339    -0.74900
O2536       O  0.77171470  0.06865032  0.70851744    -0.75000
O2537       O  0.77525934  0.02863696  0.74602329    -0.75000
O2538       O  0.82736797  0.07792659  0.68775595    -0.75100
O2539       O  0.80124239  0.03725384  0.65860475    -0.75000
O2540       O  0.74668505  0.48684046  0.71846355    -0.75000
O2541       O  0.74433403  0.02612181  0.68134175    -0.74900
O2542       O  0.80134430  0.99484923  0.69360672    -0.75000
Ni2543     Ni  0.80219436  0.05401897  0.71728847     1.25400
Ni2544     Ni  0.77224162  0.00981973  0.68708215     1.25400
C2545       C  0.82554440  0.00955902  0.70918094     0.87300
C2546       C  0.74893322  0.05257574  0.69134519     0.87200
C2547       C  0.75196913  0.00009584  0.74203460     0.87200
C2548       C  0.82450533  0.06579967  0.66438035     0.87400
O2549       O  0.98585656  0.11415786  0.95152112    -0.74900
O2550       O  0.54466810  0.08070880  0.96521423    -0.75000
O2551       O  0.98901400  0.07143561  0.98597256    -0.75000
O2552       O  0.54112567  0.12071942  0.92770447    -0.75100
O2553       O  0.56968739  0.16252273  0.95525718    -0.75000
O2554       O  0.51513809  0.11211076  0.51512163    -0.75000
O2555       O  0.57204764  0.12323823  0.99238906    -0.74900
O2556       O  0.51504279  0.15451492  0.98011503    -0.75000
Ni2557     Ni  0.51418948  0.09534065  0.95643970     1.25400
Ni2558     Ni  0.54414233  0.13954201  0.98664409     1.25400
C2559       C  0.99084281  0.13980452  0.96454036     0.87300
C2560       C  0.56744857  0.09678436  0.98238640     0.87200
C2561       C  0.99187545  0.08356473  0.50934633     0.87200
C2562       C  0.56441662  0.14926014  0.93169210     0.87400
O2563       O  0.94764786  0.15236266  0.97218554    -0.74900
O2564       O  0.91419811  0.21116264  0.95847801    -0.75000
O2565       O  0.90491133  0.15551020  0.93772003    -0.75000
O2566       O  0.95421980  0.20762677  0.99600199    -0.75100
O2567       O  0.99603027  0.23617245  0.96846217    -0.75000
O2568       O  0.94560235  0.18160155  0.90858841    -0.75000
O2569       O  0.95673124  0.23850964  0.93130918    -0.74900
O2570       O  0.98802190  0.18153363  0.94361346    -0.75000
Ni2571     Ni  0.92882882  0.18069005  0.96725919     1.25400
Ni2572     Ni  0.97304176  0.21061737  0.93707018     1.25400
C2573       C  0.97330346  0.15734345  0.95917964     0.87300
C2574       C  0.93027614  0.23392642  0.94130706     0.87200
C2575       C  0.91704844  0.15834936  0.91435537     0.87200
C2576       C  0.98276715  0.23090875  0.99202322     0.87400
O2577       O  0.61428963  0.48569066  0.80551648    -0.74900
O2578       O  0.58087616  0.04450672  0.79180980    -0.75000
O2579       O  0.57155854  0.48885376  0.77105282    -0.75000
O2580       O  0.62088950  0.04095583  0.82933290    -0.75100
O2581       O  0.66270309  0.06949500  0.80179409    -0.75000
O2582       O  0.61226699  0.01493324  0.74191943    -0.75000
O2583       O  0.62341185  0.07184647  0.76464209    -0.74900
O2584       O  0.65467975  0.01485200  0.77694353    -0.75000
Ni2585     Ni  0.59549506  0.01402446  0.80058984     1.25400
Ni2586     Ni  0.63971073  0.04394434  0.77040156     1.25400
C2587       C  0.63994273  0.49066535  0.79250876     0.87300
C2588       C  0.59695982  0.06727020  0.77463989     0.87200
C2589       C  0.58369475  0.49169186  0.74768744     0.87200
C2590       C  0.64944021  0.06423382  0.82535530     0.87400
O2591       O  0.65249785  0.44748162  0.78484903    -0.74900
O2592       O  0.71131990  0.41404388  0.79853773    -0.75000
O2593       O  0.65566295  0.40476066  0.81929786    -0.75000
O2594       O  0.70776995  0.45405337  0.76103113    -0.75100
O2595       O  0.73632617  0.49585650  0.78858551    -0.75000
O2596       O  0.68178455  0.44543396  0.84844915    -0.75000
O2597       O  0.73869644  0.45657369  0.82571273    -0.74900
O2598       O  0.68167849  0.48783582  0.81344702    -0.75000
Ni2599     Ni  0.68083596  0.42866997  0.78976551     1.25400
Ni2600     Ni  0.71078437  0.47287017  0.81997187     1.25400
C2601       C  0.65747978  0.47312565  0.79787064     0.87300
C2602       C  0.73410041  0.43012126  0.81570900     0.87200
C2603       C  0.65852349  0.41688703  0.84267271     0.87200
C2604       C  0.73105772  0.48259500  0.76501915     0.87400
O2605       O  0.70208054  0.16366936  0.86819961    -0.74900
O2606       O  0.73551688  0.10485731  0.88190436    -0.75000
O2607       O  0.69550439  0.10840594  0.84437779    -0.75000
O2608       O  0.74480896  0.16050893  0.90266830    -0.75100
O2609       O  0.70411314  0.13441476  0.93179518    -0.75000
O2610       O  0.65368871  0.07986205  0.87191330    -0.75000
O2611       O  0.69297686  0.07750790  0.90906596    -0.74900
O2612       O  0.66170326  0.13449885  0.89676899    -0.75000
Ni2613     Ni  0.72089354  0.13533604  0.87312482     1.25400
Ni2614     Ni  0.67667518  0.10540790  0.90330878     1.25400
C2615       C  0.67642455  0.15868930  0.88120498     0.87300
C2616       C  0.71943324  0.08209070  0.89907122     0.87200
C2617       C  0.66695410  0.08512660  0.84835361     0.87200
C2618       C  0.73266880  0.15766666  0.92603195     0.87400
O2619       O  0.66387108  0.20187520  0.88886357    -0.74900
O2620       O  0.60504841  0.23531325  0.87517990    -0.75000
O2621       O  0.60860254  0.19530648  0.91268688    -0.75000
O2622       O  0.66070132  0.24459369  0.85441415    -0.75100
O2623       O  0.63457623  0.20391791  0.82526587    -0.75000
O2624       O  0.58004157  0.15350184  0.88513514    -0.75000
O2625       O  0.57766793  0.19278183  0.84800712    -0.74900
O2626       O  0.63468548  0.16151795  0.86026972    -0.75000
Ni2627     Ni  0.63553257  0.22068704  0.88394943     1.25400
Ni2628     Ni  0.60557962  0.17648451  0.85374625     1.25400
C2629       C  0.65888622  0.17622989  0.87584356     0.87300
C2630       C  0.58226513  0.21923533  0.85801002     0.87200
C2631       C  0.58531319  0.16676485  0.90870062     0.87200
C2632       C  0.65783710  0.23246532  0.83104010     0.87400
O2633       O  0.81918741  0.28081646  0.61818582    -0.74900
O2634       O  0.87801144  0.24738149  0.63187563    -0.75000
O2635       O  0.82235663  0.23810054  0.65263801    -0.75000
O2636       O  0.87445826  0.28738682  0.59436559    -0.75100
O2637       O  0.90301721  0.32919302  0.62191637    -0.75000
O2638       O  0.84847953  0.27877864  0.68178475    -0.75000
O2639       O  0.90538983  0.28991380  0.65904774    -0.74900
O2640       O  0.84837140  0.32117610  0.64677816    -0.75000
Ni2641     Ni  0.84752699  0.26200648  0.62310290     1.25400
Ni2642     Ni  0.87747789  0.30621086  0.65330500     1.25400
C2643       C  0.82417061  0.30646273  0.63120506     0.87300
C2644       C  0.90079227  0.26345964  0.64904677     0.87200
C2645       C  0.82521812  0.25023093  0.67601127     0.87200
C2646       C  0.89774621  0.31593061  0.59835137     0.87400
O2647       O  0.78097270  0.31901796  0.63884995    -0.74900
O2648       O  0.74752920  0.37782532  0.62514830    -0.75000
O2649       O  0.73823757  0.32217402  0.60438584    -0.75000
O2650       O  0.78754652  0.37428011  0.66267121    -0.75100
O2651       O  0.82935862  0.40282591  0.63513289    -0.75000
O2652       O  0.77892913  0.34826638  0.57525484    -0.75000
O2653       O  0.79006478  0.40517380  0.59798225    -0.74900
O2654       O  0.82134638  0.34818896  0.61027775    -0.75000
Ni2655     Ni  0.76215594  0.34734855  0.63392649     1.25400
Ni2656     Ni  0.80637004  0.37727662  0.60373878     1.25400
C2657       C  0.80662859  0.32399929  0.62584329     0.87300
C2658       C  0.76361029  0.40059149  0.60797966     0.87200
C2659       C  0.75037323  0.32501500  0.58102077     0.87200
C2660       C  0.81609433  0.39756138  0.65869356     0.87400
O2661       O  0.53540822  0.33035010  0.53486147    -0.74900
O2662       O  0.56884306  0.27153775  0.54857229    -0.75000
O2663       O  0.52883041  0.27508437  0.51104438    -0.75000
O2664       O  0.57813671  0.32719233  0.56933169    -0.75100
O2665       O  0.53744185  0.30110159  0.59846004    -0.75000
O2666       O  0.98701518  0.24654295  0.53858098    -0.75000
O2667       O  0.52630431  0.24419237  0.57573565    -0.74900
O2668       O  0.49503142  0.30118295  0.56343240    -0.75000
Ni2669     Ni  0.55422035  0.30201676  0.53978980     1.25400
Ni2670     Ni  0.51000267  0.27209226  0.56997519     1.25400
C2671       C  0.50975172  0.32537184  0.54786644     0.87300
C2672       C  0.55275858  0.24877282  0.56574111     0.87200
C2673       C  0.50028026  0.25180504  0.51502082     0.87200
C2674       C  0.56599824  0.32435193  0.59269586     0.87400
O2675       O  0.99719577  0.36855586  0.55552155    -0.74900
O2676       O  0.93836621  0.40198517  0.54183619    -0.75000
O2677       O  0.94192480  0.36198125  0.57934387    -0.75000
O2678       O  0.99402199  0.41127142  0.52107073    -0.75100
O2679       O  0.96789973  0.37059342  0.99192378    -0.75000
O2680       O  0.91336726  0.32017483  0.55179292    -0.75000
O2681       O  0.91098879  0.35945245  0.51466424    -0.74900
O2682       O  0.96801321  0.32819701  0.52692815    -0.75000
Ni2683     Ni  0.96885385  0.38736348  0.55060626     1.25400
Ni2684     Ni  0.93890402  0.34315910  0.52040393     1.25400
C2685       C  0.99221308  0.34291040  0.54250215     0.87300
C2686       C  0.91558412  0.38590527  0.52466677     0.87200
C2687       C  0.91863855  0.33343780  0.57535863     0.87200
C2688       C  0.49116050  0.39914165  0.49769689     0.87400
O2689       O  0.78661161  0.44744593  0.53484743    -0.74900
O2690       O  0.69434262  0.41402960  0.54855342    -0.75000
O2691       O  0.73790446  0.45403010  0.51103678    -0.75000
O2692       O  0.74072052  0.40472626  0.56929774    -0.75100
O2693       O  0.75533258  0.44540008  0.59845085    -0.75000
O2694       O  0.75122149  0.49583888  0.53859022    -0.75000
O2695       O  0.70956417  0.45656689  0.57572367    -0.74900
O2696       O  0.79784416  0.48779710  0.56345286    -0.75000
Ni2697     Ni  0.73945332  0.42864230  0.53977023     1.25400
Ni2698     Ni  0.75377376  0.47284552  0.56997775     1.25400
C2699       C  0.80730500  0.47308617  0.54787252     0.87300
C2700       C  0.68767485  0.43011604  0.56572687     0.87200
C2701       C  0.74320098  0.48257851  0.51502320     0.87200
C2702       C  0.75002155  0.41685334  0.59267072     0.87400
O2703       O  0.86307955  0.48568352  0.55553363    -0.74900
O2704       O  0.95536202  0.04454548  0.54184175    -0.75000
O2705       O  0.91179974  0.04098534  0.57935429    -0.75000
O2706       O  0.90897105  0.48885811  0.52108601    -0.75100
O2707       O  0.89437785  0.01492989  0.99194049    -0.75000
O2708       O  0.89848609  0.06947834  0.55179783    -0.75000
O2709       O  0.94014672  0.07186527  0.51466896    -0.74900
O2710       O  0.85186354  0.01481172  0.52693453    -0.75000
Ni2711     Ni  0.91025053  0.01404799  0.55062300     1.25400
Ni2712     Ni  0.89593563  0.04393312  0.52041205     1.25400
C2713       C  0.84238794  0.49062878  0.54250629     0.87300
C2714       C  0.96203380  0.06730183  0.52466672     0.87200
C2715       C  0.90650446  0.06423926  0.57536572     0.87200
C2716       C  0.89967298  0.49168562  0.49771209     0.87400
O2717       O  0.95328636  0.16367524  0.61818340    -0.74900
O2718       O  0.86101626  0.10481928  0.63188473    -0.75000
O2719       O  0.90739432  0.16049990  0.65263052    -0.75000
O2720       O  0.90457957  0.10838205  0.59437102    -0.75100
O2721       O  0.91789442  0.07988929  0.62192650    -0.75000
O2722       O  0.92200020  0.13443376  0.68178568    -0.75000
O2723       O  0.87623292  0.07749938  0.65905589    -0.74900
O2724       O  0.96451563  0.13455543  0.64679141    -0.75000
Ni2725     Ni  0.90612770  0.13531814  0.62310358     1.25400
Ni2726     Ni  0.92044389  0.10543272  0.65331318     1.25400
C2727       C  0.97397737  0.15872937  0.63121119     0.87300
C2728       C  0.85434646  0.08206330  0.64905939     0.87200
C2729       C  0.91669165  0.15767122  0.67600423     0.87200
C2730       C  0.90987548  0.08512927  0.59835912     0.87400
O2731       O  0.52975237  0.20191200  0.63887445    -0.74900
O2732       O  0.62202312  0.23533591  0.62517066    -0.75000
O2733       O  0.57564257  0.24463510  0.60442626    -0.75000
O2734       O  0.57846200  0.19533096  0.66268574    -0.75100
O2735       O  0.56514808  0.15352418  0.63513068    -0.75000
O2736       O  0.56103658  0.20396383  0.57527135    -0.75000
O2737       O  0.60680570  0.19279985  0.59799959    -0.74900
O2738       O  0.51852395  0.16156398  0.61026691    -0.75000
Ni2739     Ni  0.57691143  0.22071900  0.63395299     1.25400
Ni2740     Ni  0.56259558  0.17651835  0.60374381     1.25400
C2741       C  0.50906167  0.17627342  0.62584725     0.87300
C2742       C  0.62869419  0.21925147  0.60799643     0.87200
C2743       C  0.56634517  0.23251072  0.58105255     0.87200
C2744       C  0.57316809  0.16678286  0.65869815     0.87400
O2745       O  0.61996471  0.11413829  0.70151034    -0.74900
O2746       O  0.52769324  0.08070642  0.71521587    -0.75000
O2747       O  0.57125227  0.12071704  0.67770169    -0.75000
O2748       O  0.57407704  0.07141145  0.73595640    -0.75100
O2749       O  0.58868237  0.11208020  0.76511388    -0.75000
O2750       O  0.58456142  0.16252087  0.70525898    -0.75000
O2751       O  0.54290682  0.12323813  0.74239110    -0.74900
O2752       O  0.63119118  0.15448544  0.73011844    -0.75000
Ni2753     Ni  0.57280571  0.09532839  0.70643214     1.25400
Ni2754     Ni  0.58711855  0.13952606  0.73664398     1.25400
C2755       C  0.64065549  0.13977640  0.71453770     0.87300
C2756       C  0.52102126  0.09678621  0.73239328     0.87200
C2757       C  0.57654321  0.14926422  0.68169120     0.87200
C2758       C  0.58337488  0.08353474  0.75933069     0.87400
O2759       O  0.69642807  0.15236938  0.72220608    -0.74900
O2760       O  0.78870162  0.21121389  0.70850725    -0.75000
O2761       O  0.74513915  0.20765961  0.74601757    -0.75000
O2762       O  0.74231973  0.15553490  0.68776343    -0.75100
O2763       O  0.72772072  0.18160264  0.65860389    -0.75000
O2764       O  0.73183017  0.23615445  0.71845908    -0.75000
O2765       O  0.77349143  0.23853655  0.68133280    -0.74900
O2766       O  0.68520578  0.18149090  0.69359427    -0.75000
Ni2767     Ni  0.74358842  0.18072043  0.71728747     1.25400
Ni2768     Ni  0.72927945  0.21060808  0.68707393     1.25400
C2769       C  0.67574035  0.15731820  0.70917651     0.87300
C2770       C  0.79537630  0.23397057  0.69133132     0.87200
C2771       C  0.73984578  0.23091338  0.74202733     0.87200
C2772       C  0.73302519  0.15836289  0.66438805     0.87400
O2773       O  0.78661852  0.33034563  0.78484542    -0.74900
O2774       O  0.69434736  0.27148649  0.79854343    -0.75000
O2775       O  0.74072129  0.32716834  0.81928947    -0.75000
O2776       O  0.73791470  0.27505312  0.76103220    -0.75100
O2777       O  0.75123218  0.24656331  0.78858882    -0.75000
O2778       O  0.75532476  0.30110298  0.84844754    -0.75000
O2779       O  0.70956487  0.24416705  0.82571434    -0.74900
O2780       O  0.79784701  0.30122907  0.81345767    -0.75000
Ni2781     Ni  0.73945907  0.30198747  0.78976380     1.25400
Ni2782     Ni  0.75377521  0.27210401  0.81997557     1.25400
C2783       C  0.80730875  0.32540030  0.79787525     0.87300
C2784       C  0.68767747  0.24872983  0.81571720     0.87200
C2785       C  0.75001504  0.32433998  0.84266463     0.87200
C2786       C  0.74321395  0.25180254  0.76502114     0.87400
O2787       O  0.86308572  0.36857819  0.80553873    -0.74900
O2788       O  0.95535483  0.40199195  0.79183740    -0.75000
O2789       O  0.90897970  0.41129815  0.77109154    -0.75000
O2790       O  0.91178919  0.36198802  0.82935083    -0.75100
O2791       O  0.89847141  0.32018079  0.80179525    -0.75000
O2792       O  0.89437056  0.37062655  0.74193640    -0.75000
O2793       O  0.94013494  0.35945591  0.76466593    -0.74900
O2794       O  0.85185323  0.32822969  0.77693054    -0.75000
Ni2795     Ni  0.91024391  0.38737947  0.80061844     1.25400
Ni2796     Ni  0.89592449  0.34317851  0.77040872     1.25400
C2797       C  0.84239332  0.34294130  0.79251045     0.87300
C2798       C  0.96202409  0.38590764  0.77466316     0.87200
C2799       C  0.89968075  0.39917352  0.74771751     0.87200
C2800       C  0.90649087  0.33343789  0.82536292     0.87400
O2801       O  0.95327230  0.28078239  0.86817672    -0.74900
O2802       O  0.86100342  0.24736126  0.88188309    -0.75000
O2803       O  0.90456400  0.28736736  0.84436805    -0.75000
O2804       O  0.90738380  0.23806019  0.90262546    -0.75100
O2805       O  0.92199283  0.27873165  0.93178061    -0.75000
O2806       O  0.91788030  0.32917388  0.87192399    -0.75000
O2807       O  0.87622236  0.28989643  0.90905546    -0.74900
O2808       O  0.96450385  0.32113098  0.89678475    -0.75000
Ni2809     Ni  0.90611431  0.26197743  0.87309951     1.25400
Ni2810     Ni  0.92043275  0.30617790  0.90330954     1.25400
C2811       C  0.97396543  0.30642064  0.88120381     0.87300
C2812       C  0.85433406  0.26344515  0.89905878     0.87200
C2813       C  0.90986060  0.31591647  0.84835645     0.87200
C2814       C  0.91668495  0.25018596  0.92599855     0.87400
O2815       O  0.52973894  0.31901580  0.88886915    -0.74900
O2816       O  0.62201030  0.37786835  0.87516873    -0.75000
O2817       O  0.57844606  0.37430929  0.91267823    -0.75000
O2818       O  0.57563309  0.32218590  0.85442689    -0.75100
O2819       O  0.56102837  0.34824802  0.82526624    -0.75000
O2820       O  0.56513378  0.40280108  0.88511899    -0.75000
O2821       O  0.60679476  0.40518501  0.84799256    -0.74900
O2822       O  0.51851182  0.34813303  0.86025642    -0.75000
Ni2823     Ni  0.57689817  0.34737076  0.88394963     1.25400
Ni2824     Ni  0.56258396  0.37725333  0.85373492     1.25400
C2825       C  0.50904867  0.32396119  0.87583967     0.87300
C2826       C  0.62868116  0.40062239  0.85799252     0.87200
C2827       C  0.57315253  0.39756346  0.90868745     0.87200
C2828       C  0.56633777  0.32501177  0.83105085     0.87400
O2829       O  0.69642862  0.03523885  0.97220572    -0.74900
O2830       O  0.78869947  0.06866237  0.95850330    -0.75000
O2831       O  0.74231915  0.07795824  0.93775588    -0.75000
O2832       O  0.74513836  0.02866026  0.99602026    -0.75100
O2833       O  0.73181315  0.48683983  0.96846104    -0.75000
O2834       O  0.72771110  0.03728344  0.90860447    -0.75000
O2835       O  0.77348327  0.02612527  0.93133389    -0.74900
O2836       O  0.68520016  0.99488630  0.94360320    -0.75000
Ni2837     Ni  0.74358771  0.05404532  0.96728505     1.25400
Ni2838     Ni  0.72927220  0.00984170  0.93707923     1.25400
C2839       C  0.67573693  0.00959818  0.95918092     0.87300
C2840       C  0.79536994  0.05257757  0.94132921     0.87200
C2841       C  0.73302042  0.06583024  0.91438359     0.87200
C2842       C  0.73984489  0.00011183  0.99203461     0.87400
O2843       O  0.61995322  0.49700028  0.95150396    -0.74900
O2844       O  0.52767886  0.43816097  0.96520333    -0.75000
O2845       O  0.57406491  0.49383646  0.98594939    -0.75000
O2846       O  0.57123793  0.44171284  0.92769061    -0.75100
O2847       O  0.58454443  0.41321437  0.95524720    -0.75000
O2848       O  0.58865834  0.46776175  0.51510643    -0.75000
O2849       O  0.54288577  0.41083246  0.99237403    -0.74900
O2850       O  0.63117217  0.46787442  0.98011388    -0.75000
Ni2851     Ni  0.57279276  0.46865207  0.95642285     1.25400
Ni2852     Ni  0.58709799  0.43875902  0.98663368     1.25400
C2853       C  0.64064052  0.49204926  0.96453299     0.87300
C2854       C  0.52100187  0.41540216  0.98237701     0.87200
C2855       C  0.58336852  0.99100893  0.50933600     0.87200
C2856       C  0.57652734  0.41845617  0.93167941     0.87400
O2857       O  0.83051627  0.28648600  0.97220269    -0.74900
O2858       O  0.77170239  0.19422116  0.95851627    -0.75000
O2859       O  0.82735672  0.24060329  0.93775643    -0.75000
O2860       O  0.77524622  0.23777744  0.99602227    -0.75100
O2861       O  0.74668941  0.25102253  0.96846684    -0.75000
O2862       O  0.80122974  0.25514648  0.90860307    -0.75000
O2863       O  0.74432018  0.20936901  0.93134260    -0.74900
O2864       O  0.80133443  0.29765461  0.94360199    -0.75000
Ni2865     Ni  0.80218193  0.23933380  0.96728802     1.25400
Ni2866     Ni  0.77223007  0.25357999  0.93708033     1.25400
C2867       C  0.82553236  0.30714619  0.95917742     0.87300
C2868       C  0.74892094  0.18751472  0.94134501     0.87200
C2869       C  0.82449349  0.24986622  0.91438028     0.87200
C2870       C  0.75195855  0.24303050  0.99203401     0.87400
O2871       O  0.86872492  0.36290391  0.95152804    -0.74900
O2872       O  0.90216564  0.45515490  0.96523160    -0.75000
O2873       O  0.91146017  0.40879445  0.98599085    -0.75000
O2874       O  0.86214716  0.41159238  0.92770840    -0.75100
O2875       O  0.82033566  0.39831886  0.95524803    -0.75000
O2876       O  0.87076971  0.39418858  0.51512329    -0.75000
O2877       O  0.85963083  0.43996056  0.99239915    -0.74900
O2878       O  0.82835185  0.35169448  0.98010183    -0.75000
Ni2879     Ni  0.88753985  0.41005147  0.95645190     1.25400
Ni2880     Ni  0.84332656  0.39575804  0.98664120     1.25400
C2881       C  0.84307058  0.34222512  0.96453653     0.87300
C2882       C  0.88608525  0.46183635  0.98240201     0.87200
C2883       C  0.89932462  0.39949509  0.50935616     0.87200
C2884       C  0.83359823  0.40632124  0.93168717     0.87400
O2885       O  0.81918325  0.02953633  0.86818652    -0.74900
O2886       O  0.87801165  0.12179738  0.88187214    -0.75000
O2887       O  0.87445928  0.07823626  0.84436751    -0.75000
O2888       O  0.82235226  0.07542305  0.90263316    -0.75100
O2889       O  0.84847234  0.06087122  0.93178615    -0.75000
O2890       O  0.90301021  0.06498456  0.87192355    -0.75000
O2891       O  0.90538636  0.10664238  0.90904781    -0.74900
O2892       O  0.84835909  0.01835965  0.89678741    -0.75000
Ni2893     Ni  0.84752530  0.07668670  0.87310126     1.25400
Ni2894     Ni  0.87747007  0.06243229  0.90330958     1.25400
C2895       C  0.82416121  0.00887221  0.88121146     0.87300
C2896       C  0.90079187  0.12850022  0.89904430     0.87200
C2897       C  0.89774370  0.07297808  0.84835671     0.87200
C2898       C  0.82521204  0.06615681  0.92600864     0.87400
O2899       O  0.78095914  0.45312049  0.88884983    -0.74900
O2900       O  0.74751714  0.36086923  0.87514344    -0.75000
O2901       O  0.78753452  0.40443041  0.91266756    -0.75000
O2902       O  0.73822292  0.40723107  0.85438509    -0.75100
O2903       O  0.77891322  0.42183568  0.82525270    -0.75000
O2904       O  0.82934706  0.41770641  0.88512832    -0.75000
O2905       O  0.79005361  0.37606484  0.84797779    -0.74900
O2906       O  0.82133084  0.46433012  0.86027463    -0.75000
Ni2907     Ni  0.76214279  0.40597263  0.88392418     1.25400
Ni2908     Ni  0.80635643  0.42026683  0.85373521     1.25400
C2909       C  0.80661405  0.47379850  0.87584194     0.87300
C2910       C  0.76359998  0.35418900  0.85797461     0.87200
C2911       C  0.81608403  0.40970258  0.90868967     0.87200
C2912       C  0.75035867  0.41652975  0.83101982     0.87400
O2913       O  0.99719975  0.11981349  0.80553951    -0.74900
O2914       O  0.93837721  0.02755242  0.79184466    -0.75000
O2915       O  0.99403757  0.07393356  0.77108833    -0.75000
O2916       O  0.94192448  0.07110677  0.82935450    -0.75100
O2917       O  0.91337382  0.08436051  0.80180008    -0.75000
O2918       O  0.96791618  0.08848560  0.74193688    -0.75000
O2919       O  0.91100185  0.04270936  0.76467183    -0.74900
O2920       O  0.96802334  0.13099027  0.77693944    -0.75000
Ni2921     Ni  0.96886117  0.07266283  0.80062021     1.25400
Ni2922     Ni  0.93891581  0.08691847  0.77041377     1.25400
C2923       C  0.99222041  0.14047682  0.79251708     0.87300
C2924       C  0.91559721  0.02085113  0.77467358     0.87200
C2925       C  0.49117783  0.08320311  0.74771282     0.87200
C2926       C  0.91863982  0.07636486  0.82536598     0.87400
O2927       O  0.53541179  0.19623519  0.78487220    -0.74900
O2928       O  0.56883973  0.28848409  0.79857476    -0.75000
O2929       O  0.57814309  0.24212876  0.81933613    -0.75000
O2930       O  0.52882595  0.24491846  0.76105243    -0.75100
O2931       O  0.98701296  0.23164015  0.78859143    -0.75000
O2932       O  0.53745052  0.22751725  0.84846735    -0.75000
O2933       O  0.52630379  0.27328411  0.82574183    -0.74900
O2934       O  0.49503716  0.18502068  0.81344568    -0.75000
Ni2935     Ni  0.55422090  0.24338181  0.78979612     1.25400
Ni2936     Ni  0.51000582  0.22908269  0.81998465     1.25400
C2937       C  0.50975825  0.17555457  0.79787947     0.87300
C2938       C  0.55275575  0.29516153  0.81574273     0.87200
C2939       C  0.56600746  0.23282726  0.84270010     0.87200
C2940       C  0.50027665  0.23964523  0.76503045     0.87400
O2941       O  0.94764017  0.28645123  0.72219088    -0.74900
O2942       O  0.91419784  0.19420115  0.70848358    -0.75000
O2943       O  0.95421413  0.23775929  0.74601001    -0.75000
O2944       O  0.90490859  0.24056557  0.68772387    -0.75100
O2945       O  0.94560246  0.25517123  0.65859482    -0.75000
O2946       O  0.99602772  0.25103323  0.71847261    -0.75000
O2947       O  0.95673502  0.20939511  0.68131913    -0.74900
O2948       O  0.98801623  0.29766146  0.69362042    -0.75000
Ni2949     Ni  0.92882468  0.23930418  0.71726488     1.25400
Ni2950     Ni  0.97304076  0.25359784  0.68707886     1.25400
C2951       C  0.97329530  0.30712952  0.70918427     0.87300
C2952       C  0.93027983  0.18752072  0.69131503     0.87200
C2953       C  0.98276331  0.24302876  0.74203330     0.87200
C2954       C  0.91704681  0.24986654  0.66435929     0.87400
O2955       O  0.98584675  0.36286837  0.70151946    -0.74900
O2956       O  0.54465725  0.45513407  0.71520646    -0.75000
O2957       O  0.54111570  0.41157901  0.67770067    -0.75000
O2958       O  0.98900267  0.40874964  0.73596559    -0.75100
O2959       O  0.51512878  0.39420591  0.76511934    -0.75000
O2960       O  0.56967420  0.39833670  0.70525674    -0.75000
O2961       O  0.57203859  0.43998724  0.74238207    -0.74900
O2962       O  0.51503020  0.35170128  0.73011960    -0.75000
Ni2963     Ni  0.51417895  0.41002083  0.70643452     1.25400
Ni2964     Ni  0.54413127  0.39577601  0.73664278     1.25400
C2965       C  0.99083208  0.34220926  0.71454352     0.87300
C2966       C  0.56743845  0.46184112  0.73237799     0.87200
C2967       C  0.56440515  0.40632823  0.68168920     0.87200
C2968       C  0.99186528  0.39948534  0.75934199     0.87400
O2969       O  0.70208004  0.02958107  0.61820664    -0.74900
O2970       O  0.73551944  0.12183186  0.63190982    -0.75000
O2971       O  0.74481497  0.07547141  0.65267067    -0.75000
O2972       O  0.69550061  0.07826861  0.59438777    -0.75100
O2973       O  0.65368862  0.06499279  0.62192758    -0.75000
O2974       O  0.70412409  0.06086598  0.68180268    -0.75000
O2975       O  0.69298439  0.10663714  0.65907704    -0.74900
O2976       O  0.66170789  0.01837059  0.64678154    -0.75000
Ni2977     Ni  0.72089433  0.07672856  0.62313096     1.25400
Ni2978     Ni  0.67668106  0.06243426  0.65332035     1.25400
C2979       C  0.67642633  0.00890266  0.63121481     0.87300
C2980       C  0.71943764  0.12851279  0.64907940     0.87200
C2981       C  0.73267945  0.06617133  0.67603519     0.87200
C2982       C  0.66694973  0.07299495  0.59836618     0.87400
O2983       O  0.66386062  0.45316357  0.63887031    -0.74900
O2984       O  0.60503459  0.36090138  0.62518146    -0.75000
O2985       O  0.66069368  0.40727683  0.60442360    -0.75000
O2986       O  0.60858627  0.40446050  0.66268812    -0.75100
O2987       O  0.58003474  0.41771224  0.63513296    -0.75000
O2988       O  0.63457374  0.42182798  0.57526982    -0.75000
O2989       O  0.57765953  0.37605721  0.59800703    -0.74900
O2990       O  0.63468459  0.46433902  0.61026888    -0.75000
Ni2991     Ni  0.63552017  0.40601211  0.63395439     1.25400
Ni2992     Ni  0.60557522  0.42026639  0.60374623     1.25400
C2993       C  0.65888118  0.47382620  0.62584594     0.87300
C2994       C  0.58225431  0.35419913  0.60800899     0.87200
C2995       C  0.65783375  0.41654135  0.58104792     0.87200
C2996       C  0.58530155  0.40971789  0.65869875     0.87400
O2997       O  0.61429608  0.11977919  0.55552771    -0.74900
O2998       O  0.58086868  0.02753162  0.54181961    -0.75000
O2999       O  0.62088220  0.07109478  0.57934566    -0.75000
O3000       O  0.57156719  0.07388847  0.52106100    -0.75100
O3001       O  0.61226055  0.08849886  0.99193065    -0.75000
O3002       O  0.66269709  0.08437812  0.55180756    -0.75000
O3003       O  0.62340786  0.04273298  0.51465595    -0.74900
O3004       O  0.65467061  0.13099579  0.52695360    -0.75000
Ni3005     Ni  0.59548778  0.07263291  0.55060142     1.25400
Ni3006     Ni  0.63970431  0.08693412  0.52041406     1.25400
C3007       C  0.63994908  0.14046064  0.54251958     0.87300
C3008       C  0.59695352  0.02085494  0.52465030     0.87200
C3009       C  0.64943316  0.07637242  0.57536853     0.87200
C3010       C  0.58370367  0.08319000  0.49769734     0.87400
O3011       O  0.65250571  0.19620112  0.53485606    -0.74900
O3012       O  0.71133395  0.28846422  0.54853835    -0.75000
O3013       O  0.70777871  0.24490107  0.51103520    -0.75000
O3014       O  0.65567486  0.24209149  0.56930027    -0.75100
O3015       O  0.68179562  0.22754228  0.59845468    -0.75000
O3016       O  0.73633029  0.23164978  0.53859096    -0.75000
O3017       O  0.73870992  0.27330969  0.57571285    -0.74900
O3018       O  0.68168196  0.18502743  0.56345894    -0.75000
Ni3019     Ni  0.68084677  0.24335278  0.53976893     1.25400
Ni3020     Ni  0.71079234  0.22910010  0.56997780     1.25400
C3021       C  0.65748471  0.17553859  0.54788120     0.87300
C3022       C  0.73411568  0.29516705  0.56570892     0.87200
C3023       C  0.73106329  0.23964294  0.51502451     0.87200
C3024       C  0.65853561  0.23282812  0.59267618     0.87400
O3025       O  0.86873884  0.99699987  0.20153107    -0.74900
O3026       O  0.90218434  0.93819460  0.21523298    -0.75000
O3027       O  0.86216489  0.94173734  0.17770980    -0.75000
O3028       O  0.91147497  0.99384626  0.23599439    -0.75100
O3029       O  0.87078493  0.96775136  0.26512632    -0.75000
O3030       O  0.82035279  0.91319378  0.20524870    -0.75000
O3031       O  0.85964744  0.91084426  0.24239717    -0.74900
O3032       O  0.82836719  0.96783029  0.23010565    -0.75000
Ni3033     Ni  0.88755632  0.96867035  0.20645416     1.25400
Ni3034     Ni  0.84334281  0.93874210  0.23664247     1.25400
C3035       C  0.84308437  0.99202025  0.21453959     0.87300
C3036       C  0.88610298  0.91542911  0.23240075     0.87200
C3037       C  0.83361651  0.91845766  0.18168778     0.87200
C3038       C  0.89932388  0.49101103  0.25936150     0.87400
O3039       O  0.83051553  0.53520593  0.22219836    -0.74900
O3040       O  0.77170386  0.56865559  0.20850960    -0.75000
O3041       O  0.77524641  0.52864277  0.24601727    -0.75000
O3042       O  0.82735700  0.57792875  0.18774877    -0.75100
O3043       O  0.80123049  0.53725485  0.15859891    -0.75000
O3044       O  0.74669908  0.98683520  0.21846866    -0.75000
O3045       O  0.74432216  0.52612650  0.18133490    -0.74900
O3046       O  0.80132935  0.49485047  0.19360309    -0.75000
Ni3047     Ni  0.80218229  0.55402292  0.21728185     1.25400
Ni3048     Ni  0.77222837  0.50982263  0.18707670     1.25400
C3049       C  0.82552981  0.50956019  0.20917733     0.87300
C3050       C  0.74892221  0.55258013  0.19133800     0.87200
C3051       C  0.75195546  0.50010174  0.24202876     0.87200
C3052       C  0.82449385  0.56579946  0.16437375     0.87400
O3053       O  0.98584719  0.61415797  0.45151286    -0.74900
O3054       O  0.54465663  0.58070630  0.46520449    -0.75000
O3055       O  0.98900131  0.57143244  0.48596179    -0.75000
O3056       O  0.54111763  0.62072072  0.42769707    -0.75100
O3057       O  0.56967753  0.66252156  0.45525245    -0.75000
O3058       O  0.51512562  0.61210431  0.01511371    -0.75000
O3059       O  0.57203584  0.62323394  0.49238129    -0.74900
O3060       O  0.51503141  0.65451128  0.48011041    -0.75000
Ni3061     Ni  0.51417908  0.59533955  0.45643055     1.25400
Ni3062     Ni  0.54413083  0.63953795  0.48663794     1.25400
C3063       C  0.99083287  0.63980268  0.46453518     0.87300
C3064       C  0.56743712  0.59678042  0.48237699     0.87200
C3065       C  0.99186152  0.58355886  0.00933651     0.87200
C3066       C  0.56440852  0.64926039  0.43168674     0.87400
O3067       O  0.94764023  0.65236364  0.47218468    -0.74900
O3068       O  0.91419629  0.71116940  0.45848307    -0.75000
O3069       O  0.90490319  0.65551517  0.43772244    -0.75000
O3070       O  0.95421720  0.70762829  0.49600361    -0.75100
O3071       O  0.99602753  0.73617144  0.46846283    -0.75000
O3072       O  0.94559247  0.68160615  0.40858920    -0.75000
O3073       O  0.95672985  0.73851578  0.43131453    -0.74900
O3074       O  0.98801204  0.68153202  0.44360978    -0.75000
Ni3075     Ni  0.92882386  0.68069358  0.46726130     1.25400
Ni3076     Ni  0.97303572  0.71061930  0.43707089     1.25400
C3077       C  0.97329465  0.65734271  0.45917552     0.87300
C3078       C  0.93027648  0.73393460  0.44131386     0.87200
C3079       C  0.91703810  0.65835375  0.41435761     0.87200
C3080       C  0.98276588  0.73090958  0.49202428     0.87400
O3081       O  0.61430349  0.98568774  0.30551590    -0.74900
O3082       O  0.58086214  0.54451034  0.29181499    -0.75000
O3083       O  0.57157329  0.98884898  0.27105029    -0.75000
O3084       O  0.62087667  0.54095799  0.32933689    -0.75100
O3085       O  0.66269045  0.56949581  0.30179803    -0.75000
O3086       O  0.61225086  0.51494154  0.24192127    -0.75000
O3087       O  0.62339972  0.57185361  0.26464976    -0.74900
O3088       O  0.65466336  0.51485449  0.27694189    -0.75000
Ni3089     Ni  0.59548108  0.51402778  0.30059303     1.25400
Ni3090     Ni  0.63969623  0.54394905  0.27040468     1.25400
C3091       C  0.63995858  0.99066333  0.29251025     0.87300
C3092       C  0.59694622  0.56727554  0.27464641     0.87200
C3093       C  0.58370962  0.99168426  0.24768585     0.87200
C3094       C  0.64942814  0.56423421  0.32535942     0.87400
O3095       O  0.65251186  0.94747811  0.28485369    -0.74900
O3096       O  0.71133078  0.91403762  0.29854572    -0.75000
O3097       O  0.65567396  0.90475773  0.31930511    -0.75000
O3098       O  0.70778340  0.95404678  0.26103728    -0.75100
O3099       O  0.73634016  0.99585067  0.28859082    -0.75000
O3100       O  0.68179685  0.94543209  0.34845508    -0.75000
O3101       O  0.73870859  0.95656832  0.32571945    -0.74900
O3102       O  0.68169312  0.98783331  0.31345064    -0.75000
Ni3103     Ni  0.68084836  0.92866511  0.28977209     1.25400
Ni3104     Ni  0.71079778  0.97286642  0.31997734     1.25400
C3105       C  0.65749471  0.97312303  0.29787415     0.87300
C3106       C  0.73411176  0.93011603  0.31571655     0.87200
C3107       C  0.65853515  0.91688629  0.34267935     0.87200
C3108       C  0.73107171  0.98258892  0.26502492     0.87400
O3109       O  0.70207726  0.66366893  0.36820001    -0.74900
O3110       O  0.73551143  0.60485503  0.38190397    -0.75000
O3111       O  0.69549610  0.60840335  0.34438028    -0.75000
O3112       O  0.74480869  0.66051092  0.40266602    -0.75100
O3113       O  0.70411626  0.63441961  0.43179627    -0.75000
O3114       O  0.65368206  0.57986368  0.37191835    -0.75000
O3115       O  0.69297339  0.57750913  0.40906799    -0.74900
O3116       O  0.66170339  0.63450313  0.39677380    -0.75000
Ni3117     Ni  0.72088926  0.63533513  0.37312480     1.25400
Ni3118     Ni  0.67667366  0.60541106  0.40331213     1.25400
C3119       C  0.67642365  0.65869199  0.38120734     0.87300
C3120       C  0.71942756  0.58208944  0.39907110     0.87200
C3121       C  0.66694510  0.58512609  0.34835759     0.87200
C3122       C  0.73267156  0.65767143  0.42603002     0.87400
O3123       O  0.66386919  0.70187636  0.38886707    -0.74900
O3124       O  0.60505047  0.73531735  0.37517839    -0.75000
O3125       O  0.60859817  0.69530782  0.41268520    -0.75000
O3126       O  0.66070634  0.74459725  0.35441742    -0.75100
O3127       O  0.63458320  0.70392350  0.32526682    -0.75000
O3128       O  0.58004003  0.65350482  0.38513111    -0.75000
O3129       O  0.57767254  0.69278784  0.34800310    -0.74900
O3130       O  0.63468673  0.66152135  0.36027035    -0.75000
Ni3131     Ni  0.63553261  0.72068947  0.38395032     1.25400
Ni3132     Ni  0.60558243  0.67648903  0.35374446     1.25400
C3133       C  0.65888503  0.67623123  0.37584520     0.87300
C3134       C  0.58226867  0.71924054  0.35800726     0.87200
C3135       C  0.58530821  0.66676610  0.40869700     0.87200
C3136       C  0.65784501  0.73247010  0.33104274     0.87400
O3137       O  0.81918654  0.78081572  0.11818360    -0.74900
O3138       O  0.87800662  0.74737734  0.13187634    -0.75000
O3139       O  0.82234885  0.73809605  0.15263479    -0.75000
O3140       O  0.87446004  0.78738707  0.09436781    -0.75100
O3141       O  0.90301589  0.82919057  0.12192192    -0.75000
O3142       O  0.84846959  0.77877101  0.18178461    -0.75000
O3143       O  0.90538256  0.78990703  0.15905156    -0.74900
O3144       O  0.84836724  0.82117204  0.14677978    -0.75000
Ni3145     Ni  0.84752421  0.76200427  0.12310223     1.25400
Ni3146     Ni  0.87747210  0.80620554  0.15330779     1.25400
C3147       C  0.82416807  0.80645991  0.13120431     0.87300
C3148       C  0.90078638  0.76345491  0.14904879     0.87200
C3149       C  0.82520809  0.75022497  0.17600858     0.87200
C3150       C  0.89774770  0.81592940  0.09835553     0.87400
O3151       O  0.78097342  0.81901839  0.13885104    -0.74900
O3152       O  0.74753339  0.87782846  0.12514943    -0.75000
O3153       O  0.73823627  0.82217260  0.10438868    -0.75000
O3154       O  0.78755233  0.87428300  0.16266973    -0.75100
O3155       O  0.82936336  0.90282421  0.13512913    -0.75000
O3156       O  0.77892492  0.84826177  0.07525476    -0.75000
O3157       O  0.79006744  0.90517311  0.09798119    -0.74900
O3158       O  0.82134413  0.84818437  0.11027478    -0.75000
Ni3159     Ni  0.76215833  0.84735005  0.13392746     1.25400
Ni3160     Ni  0.80637023  0.87727372  0.10373665     1.25400
C3161       C  0.80662745  0.82399721  0.12584226     0.87300
C3162       C  0.76361562  0.90059414  0.10798034     0.87200
C3163       C  0.75036974  0.82501099  0.08102384     0.87200
C3164       C  0.81610190  0.89756264  0.15869036     0.87400
O3165       O  0.53541311  0.83034963  0.03486346    -0.74900
O3166       O  0.56884382  0.77153261  0.04856730    -0.75000
O3167       O  0.52883038  0.77508313  0.01104352    -0.75000
O3168       O  0.57814354  0.82718885  0.06932918    -0.75100
O3169       O  0.53745130  0.80109857  0.09845989    -0.75000
O3170       O  0.98701607  0.74654429  0.03858166    -0.75000
O3171       O  0.52630528  0.74418772  0.07573103    -0.74900
O3172       O  0.49503943  0.80118478  0.06343775    -0.75000
Ni3173     Ni  0.55422350  0.80201426  0.03978808     1.25400
Ni3174     Ni  0.51000778  0.77209128  0.06997562     1.25400
C3175       C  0.50975921  0.82537331  0.04787137     0.87300
C3176       C  0.55275824  0.74876643  0.06573447     0.87200
C3177       C  0.50027992  0.75180523  0.01502131     0.87200
C3178       C  0.56600780  0.82434900  0.09269371     0.87400
O3179       O  0.99720287  0.86855596  0.05553175    -0.74900
O3180       O  0.93837694  0.90198944  0.04184735    -0.75000
O3181       O  0.94193092  0.86198127  0.07935285    -0.75000
O3182       O  0.99403406  0.91127519  0.02108324    -0.75100
O3183       O  0.96791123  0.87060072  0.49193339    -0.75000
O3184       O  0.91337497  0.82017733  0.05179923    -0.75000
O3185       O  0.91099955  0.85945860  0.01467348    -0.74900
O3186       O  0.96802210  0.82820097  0.02693450    -0.75000
Ni3187     Ni  0.96886278  0.88736541  0.05061711     1.25400
Ni3188     Ni  0.93891378  0.84316414  0.02041175     1.25400
C3189       C  0.99222065  0.84291192  0.04250913     0.87300
C3190       C  0.91559443  0.88591017  0.02467733     0.87200
C3191       C  0.91864379  0.83343801  0.07536503     0.87200
C3192       C  0.49117214  0.89914654  0.99770871     0.87400
O3193       O  0.78662490  0.94745766  0.03485339    -0.74900
O3194       O  0.69435548  0.91404088  0.04855371    -0.75000
O3195       O  0.73792054  0.95404456  0.01104143    -0.75000
O3196       O  0.74072994  0.90473485  0.06929894    -0.75100
O3197       O  0.75534037  0.94540571  0.09845500    -0.75000
O3198       O  0.75123527  0.99585140  0.03859676    -0.75000
O3199       O  0.70957447  0.95657547  0.07572687    -0.74900
O3200       O  0.79785564  0.98780636  0.06346114    -0.75000
Ni3201     Ni  0.73946649  0.92865435  0.03977320     1.25400
Ni3202     Ni  0.75378451  0.97285452  0.06998348     1.25400
C3203       C  0.80731805  0.97309656  0.04788054     0.87300
C3204       C  0.68768507  0.93012444  0.06572865     0.87200
C3205       C  0.74321662  0.98259393  0.01502899     0.87200
C3206       C  0.75002865  0.91685822  0.09267280     0.87400
O3207       O  0.86309173  0.98569227  0.05554387    -0.74900
O3208       O  0.95534892  0.54453963  0.04183158    -0.75000
O3209       O  0.91178566  0.54097776  0.07934445    -0.75000
O3210       O  0.90898278  0.98886426  0.02109707    -0.75100
O3211       O  0.89436416  0.51492288  0.49193035    -0.75000
O3212       O  0.89847090  0.56947010  0.05178837    -0.75000
O3213       O  0.94013222  0.57185821  0.01465869    -0.74900
O3214       O  0.85184923  0.51480217  0.02692515    -0.75000
Ni3215     Ni  0.91023779  0.51404086  0.05061265     1.25400
Ni3216     Ni  0.89592114  0.54392513  0.02040230     1.25400
C3217       C  0.84240116  0.99063898  0.04251558     0.87300
C3218       C  0.96202022  0.56729555  0.02465628     0.87200
C3219       C  0.90648978  0.56423068  0.07535637     0.87200
C3220       C  0.89968514  0.99169155  0.99772233     0.87400
O3221       O  0.95327748  0.66366745  0.11817398    -0.74900
O3222       O  0.86100723  0.60481818  0.13187836    -0.75000
O3223       O  0.90739033  0.66049732  0.15262348    -0.75000
O3224       O  0.90456662  0.60837560  0.09436264    -0.75100
O3225       O  0.91787975  0.57988076  0.12191722    -0.75000
O3226       O  0.92199253  0.63442712  0.18177756    -0.75000
O3227       O  0.87622115  0.57749472  0.15904812    -0.74900
O3228       O  0.96450481  0.63454536  0.14678115    -0.75000
Ni3229     Ni  0.90611900  0.63531362  0.12309576     1.25400
Ni3230     Ni  0.92043248  0.60542521  0.15330424     1.25400
C3231       C  0.97396865  0.65871995  0.13120120     0.87300
C3232       C  0.85433464  0.58206160  0.14905235     0.87200
C3233       C  0.91668672  0.65766728  0.17599722     0.87200
C3234       C  0.90986121  0.58512094  0.09835029     0.87400
O3235       O  0.52974281  0.70190236  0.13886433    -0.74900
O3236       O  0.62201403  0.73532382  0.12516663    -0.75000
O3237       O  0.57563831  0.74462547  0.10441900    -0.75000
O3238       O  0.57844903  0.69531993  0.16267901    -0.75100
O3239       O  0.56513745  0.65351299  0.13512462    -0.75000
O3240       O  0.56103110  0.70395414  0.07526390    -0.75000
O3241       O  0.60679801  0.69278893  0.09799456    -0.74900
O3242       O  0.51851529  0.66155342  0.11025797    -0.75000
Ni3243     Ni  0.57690209  0.72070813  0.13394596     1.25400
Ni3244     Ni  0.56258731  0.67650755  0.10373684     1.25400
C3245       C  0.50905191  0.67626351  0.12583780     0.87300
C3246       C  0.62868490  0.71923986  0.10799278     0.87200
C3247       C  0.56634218  0.73250185  0.08104491     0.87200
C3248       C  0.57315534  0.66677136  0.15869168     0.87400
O3249       O  0.61995230  0.61413373  0.20151289    -0.74900
O3250       O  0.52768040  0.58070250  0.21521569    -0.75000
O3251       O  0.57123945  0.62070798  0.17769969    -0.75000
O3252       O  0.57406325  0.57141086  0.23596165    -0.75100
O3253       O  0.58866853  0.61208363  0.26511475    -0.75000
O3254       O  0.58454751  0.66251491  0.20525313    -0.75000
O3255       O  0.54289323  0.62323776  0.24238677    -0.74900
O3256       O  0.63117773  0.65448462  0.23011630    -0.75000
Ni3257     Ni  0.57279269  0.59532348  0.20643371     1.25400
Ni3258     Ni  0.58710468  0.63952511  0.23664093     1.25400
C3259       C  0.64064194  0.63977425  0.21453776     0.87300
C3260       C  0.52100738  0.59678451  0.23239070     0.87200
C3261       C  0.57652968  0.64925481  0.18168615     0.87200
C3262       C  0.58336061  0.58353739  0.25933481     0.87400
O3263       O  0.69641524  0.65236556  0.22220302    -0.74900
O3264       O  0.78868869  0.71120703  0.20850269    -0.75000
O3265       O  0.74512953  0.70765412  0.24601540    -0.75000
O3266       O  0.74230354  0.65553121  0.18775681    -0.75100
O3267       O  0.72770391  0.68160191  0.15860097    -0.75000
O3268       O  0.73182485  0.73615460  0.21845954    -0.75000
O3269       O  0.77348073  0.73853234  0.18132923    -0.74900
O3270       O  0.68519383  0.68149238  0.19359643    -0.75000
Ni3271     Ni  0.74357532  0.68071536  0.21728329     1.25400
Ni3272     Ni  0.72926801  0.71060729  0.18707316     1.25400
C3273       C  0.67572733  0.65731693  0.20917612     0.87300
C3274       C  0.79536428  0.73396420  0.19132694     0.87200
C3275       C  0.73984108  0.73091182  0.24202721     0.87200
C3276       C  0.73300878  0.65836149  0.16438273     0.87400
O3277       O  0.78662864  0.83034782  0.28484847    -0.74900
O3278       O  0.69435752  0.77149151  0.29854828    -0.75000
O3279       O  0.74073476  0.82717012  0.31929637    -0.75000
O3280       O  0.73792139  0.77505684  0.26103425    -0.75100
O3281       O  0.75123450  0.74656126  0.28858807    -0.75000
O3282       O  0.75533935  0.80110204  0.34845049    -0.75000
O3283       O  0.70957289  0.74416936  0.32571801    -0.74900
O3284       O  0.79785646  0.80122579  0.31345501    -0.75000
Ni3285     Ni  0.73946937  0.80199076  0.28976813     1.25400
Ni3286     Ni  0.75378403  0.77210287  0.31997618     1.25400
C3287       C  0.80731907  0.82539970  0.29787539     0.87300
C3288       C  0.68768668  0.74873431  0.31572174     0.87200
C3289       C  0.75002963  0.82433884  0.34267061     0.87200
C3290       C  0.74321569  0.75180269  0.26502130     0.87400
O3291       O  0.86309582  0.86858185  0.30553536    -0.74900
O3292       O  0.95536530  0.90199573  0.29183651    -0.75000
O3293       O  0.90899085  0.91129797  0.27108549    -0.75000
O3294       O  0.91180012  0.86199688  0.32935205    -0.75100
O3295       O  0.89848386  0.82018661  0.30180052    -0.75000
O3296       O  0.89438146  0.87062215  0.24193486    -0.75000
O3297       O  0.94014646  0.85945632  0.26466908    -0.74900
O3298       O  0.85186470  0.82822919  0.27693217    -0.75000
Ni3299     Ni  0.91025452  0.88738382  0.30061597     1.25400
Ni3300     Ni  0.89593609  0.84317882  0.27041100     1.25400
C3301       C  0.84240342  0.84294220  0.29251052     0.87300
C3302       C  0.96203539  0.88590899  0.27466431     0.87200
C3303       C  0.89969240  0.89916972  0.24771285     0.87200
C3304       C  0.90650260  0.83344740  0.32536678     0.87400
O3305       O  0.95328141  0.78079311  0.36818598    -0.74900
O3306       O  0.86101184  0.74737430  0.38188749    -0.75000
O3307       O  0.90457564  0.78737876  0.34437442    -0.75000
O3308       O  0.90738790  0.73807130  0.40263292    -0.75100
O3309       O  0.92199859  0.77874343  0.43178762    -0.75000
O3310       O  0.91788971  0.82918582  0.37192925    -0.75000
O3311       O  0.87622981  0.78990879  0.40906043    -0.74900
O3312       O  0.96451240  0.82114305  0.39679206    -0.75000
Ni3313     Ni  0.90612282  0.76198918  0.37310638     1.25400
Ni3314     Ni  0.92044057  0.80619018  0.40331583     1.25400
C3315       C  0.97397294  0.80643151  0.38121261     0.87300
C3316       C  0.85434254  0.76345774  0.39906307     0.87200
C3317       C  0.90987180  0.81592803  0.34836229     0.87200
C3318       C  0.91668754  0.75019631  0.42600544     0.87400
O3319       O  0.52974667  0.81902389  0.38887779    -0.74900
O3320       O  0.62201870  0.87786875  0.37517530    -0.75000
O3321       O  0.57845795  0.87431562  0.41268643    -0.75000
O3322       O  0.57563628  0.82218855  0.35443283    -0.75100
O3323       O  0.56103655  0.84825553  0.32527338    -0.75000
O3324       O  0.56514831  0.90281008  0.38512806    -0.75000
O3325       O  0.60680732  0.90519003  0.34800053    -0.74900
O3326       O  0.51852242  0.84814386  0.36026579    -0.75000
Ni3327     Ni  0.57690596  0.84737520  0.38395698     1.25400
Ni3328     Ni  0.56259565  0.87726164  0.35374345     1.25400
C3329       C  0.50905749  0.82397217  0.37584826     0.87300
C3330       C  0.62869216  0.90062413  0.35799920     0.87200
C3331       C  0.57316617  0.89757100  0.40869657     0.87200
C3332       C  0.56634302  0.82501738  0.33105770     0.87400
O3333       O  0.69641563  0.53522790  0.47220025    -0.74900
O3334       O  0.78868716  0.56865222  0.45850347    -0.75000
O3335       O  0.74231000  0.57795090  0.43775547    -0.75000
O3336       O  0.74512250  0.52864593  0.49601591    -0.75100
O3337       O  0.73182648  0.98685167  0.46846782    -0.75000
O3338       O  0.72770377  0.53727944  0.40860075    -0.75000
O3339       O  0.77347380  0.52611830  0.43133080    -0.74900
O3340       O  0.68518911  0.49487823  0.44359511    -0.75000
Ni3341     Ni  0.74357491  0.55403412  0.46728258     1.25400
Ni3342     Ni  0.72926190  0.50983386  0.43707359     1.25400
C3343       C  0.67572510  0.50958907  0.45917287     0.87300
C3344       C  0.79535931  0.55256962  0.44132771     0.87200
C3345       C  0.73301313  0.56582605  0.41438188     0.87200
C3346       C  0.73982943  0.50009720  0.49202844     0.87400
O3347       O  0.61996454  0.99700822  0.45151471    -0.74900
O3348       O  0.52769100  0.93816639  0.46521484    -0.75000
O3349       O  0.57407643  0.99384174  0.48596147    -0.75000
O3350       O  0.57125073  0.94172018  0.42770119    -0.75100
O3351       O  0.58455780  0.91322137  0.45525688    -0.75000
O3352       O  0.58867221  0.96776780  0.01511725    -0.75000
O3353       O  0.54289890  0.91083879  0.49238543    -0.74900
O3354       O  0.63118557  0.96788245  0.48012293    -0.75000
Ni3355     Ni  0.57280472  0.96865843  0.45643411     1.25400
Ni3356     Ni  0.58711154  0.93876577  0.48664380     1.25400
C3357       C  0.64065311  0.99205756  0.46454303     0.87300
C3358       C  0.52101579  0.91540856  0.48238882     0.87200
C3359       C  0.58335591  0.49100353  0.00932471     0.87200
C3360       C  0.57654089  0.91846294  0.43168903     0.87400
O3361       O  0.83052022  0.78648850  0.47220936    -0.74900
O3362       O  0.77170565  0.69422545  0.45851536    -0.75000
O3363       O  0.82736203  0.74061004  0.43775915    -0.75000
O3364       O  0.77524679  0.73777808  0.49602448    -0.75100
O3365       O  0.74669194  0.75102515  0.46846900    -0.75000
O3366       O  0.80123843  0.75515894  0.40860719    -0.75000
O3367       O  0.74432758  0.70937684  0.43134023    -0.74900
O3368       O  0.80134002  0.79766146  0.44361046    -0.75000
Ni3369     Ni  0.80218517  0.73933708  0.46729059     1.25400
Ni3370     Ni  0.77223633  0.75358760  0.43708345     1.25400
C3371       C  0.82553842  0.80715077  0.45918704     0.87300
C3372       C  0.74892601  0.68752073  0.44134240     0.87200
C3373       C  0.82450091  0.74987736  0.41438387     0.87200
C3374       C  0.75196038  0.74303133  0.49203470     0.87400
O3375       O  0.86873361  0.86290794  0.45154001    -0.74900
O3376       O  0.90217696  0.95516007  0.46524279    -0.75000
O3377       O  0.91147076  0.90879963  0.48600229    -0.75000
O3378       O  0.86215771  0.91159669  0.42772032    -0.75100
O3379       O  0.82034630  0.89832382  0.45525991    -0.75000
O3380       O  0.87078063  0.89419452  0.01513522    -0.75000
O3381       O  0.85964264  0.93996684  0.49241051    -0.74900
O3382       O  0.82836135  0.85169968  0.48011430    -0.75000
Ni3383     Ni  0.88755021  0.91005612  0.45646360     1.25400
Ni3384     Ni  0.84333745  0.89576371  0.48665321     1.25400
C3385       C  0.84307880  0.84222971  0.46454740     0.87300
C3386       C  0.88609648  0.96184171  0.48241314     0.87200
C3387       C  0.89933617  0.89950121  0.00936749     0.87200
C3388       C  0.83360882  0.90632487  0.43169880     0.87400
O3389       O  0.81917643  0.52954138  0.36818262    -0.74900
O3390       O  0.87800120  0.62180222  0.38187427    -0.75000
O3391       O  0.87445194  0.57824608  0.34436608    -0.75000
O3392       O  0.82234247  0.57542278  0.40263368    -0.75100
O3393       O  0.84846302  0.56086822  0.43178383    -0.75000
O3394       O  0.90300507  0.56499542  0.37192049    -0.75000
O3395       O  0.90537585  0.60664644  0.40904918    -0.74900
O3396       O  0.84835455  0.51836354  0.39677975    -0.75000
Ni3397     Ni  0.84751672  0.57669172  0.37310073     1.25400
Ni3398     Ni  0.87746283  0.56243636  0.40330663     1.25400
C3399       C  0.82415685  0.50887744  0.38120501     0.87300
C3400       C  0.90078070  0.62850457  0.39904610     0.87200
C3401       C  0.89773813  0.57298982  0.34835493     0.87200
C3402       C  0.82520186  0.56615288  0.42600795     0.87400
O3403       O  0.78096593  0.95311535  0.38885751    -0.74900
O3404       O  0.74752960  0.86086522  0.37515130    -0.75000
O3405       O  0.78754322  0.90442757  0.41267689    -0.75000
O3406       O  0.73823289  0.90722453  0.35439225    -0.75100
O3407       O  0.77892482  0.92183048  0.32526125    -0.75000
O3408       O  0.82935812  0.91770695  0.38513949    -0.75000
O3409       O  0.79006879  0.87606295  0.34798835    -0.74900
O3410       O  0.82133874  0.96432659  0.36028305    -0.75000
Ni3411     Ni  0.76215208  0.90596777  0.38393235     1.25400
Ni3412     Ni  0.80636780  0.92026418  0.35374504     1.25400
C3413       C  0.80662001  0.97379398  0.37584987     0.87300
C3414       C  0.76361352  0.85418604  0.35798350     0.87200
C3415       C  0.81609419  0.90970303  0.40870046     0.87200
C3416       C  0.75036908  0.91652349  0.33102774     0.87400
O3417       O  0.99719510  0.61981876  0.30553525    -0.74900
O3418       O  0.93836295  0.52755909  0.29184486    -0.75000
O3419       O  0.99402409  0.57393362  0.27108520    -0.75000
O3420       O  0.94191779  0.57111828  0.32935228    -0.75100
O3421       O  0.91336854  0.58437398  0.30179798    -0.75000
O3422       O  0.96790537  0.58848947  0.24193428    -0.75000
O3423       O  0.91099005  0.54271844  0.26467143    -0.74900
O3424       O  0.96802082  0.63099923  0.27693599    -0.75000
Ni3425     Ni  0.96885132  0.57266867  0.30061780     1.25400
Ni3426     Ni  0.93890827  0.58692751  0.27041163     1.25400
C3427       C  0.99221775  0.64048344  0.29251238     0.87300
C3428       C  0.91558270  0.52085912  0.27467389     0.87200
C3429       C  0.49116515  0.58320310  0.24771027     0.87200
C3430       C  0.91863465  0.57637780  0.32536409     0.87400
O3431       O  0.53541246  0.69624197  0.28486878    -0.74900
O3432       O  0.56884362  0.78849085  0.29857662    -0.75000
O3433       O  0.57814557  0.74213347  0.31933398    -0.75000
O3434       O  0.52882904  0.74492704  0.26105210    -0.75100
O3435       O  0.98701538  0.73164580  0.28859122    -0.75000
O3436       O  0.53745443  0.72752324  0.34846630    -0.75000
O3437       O  0.52630658  0.77329012  0.32574289    -0.74900
O3438       O  0.49503990  0.68502738  0.31344464    -0.75000
Ni3439     Ni  0.55422343  0.74338892  0.28979507     1.25400
Ni3440     Ni  0.51000885  0.72908911  0.31998439     1.25400
C3441       C  0.50975871  0.67556160  0.29787657     0.87300
C3442       C  0.55275975  0.79516898  0.31574668     0.87200
C3443       C  0.56601031  0.73283261  0.34269758     0.87200
C3444       C  0.50027783  0.73964983  0.26502984     0.87400
O3445       O  0.94763802  0.78644545  0.22219180    -0.74900
O3446       O  0.91419427  0.69419507  0.20848045    -0.75000
O3447       O  0.95421163  0.73775305  0.24600845    -0.75000
O3448       O  0.90490442  0.74056041  0.18772429    -0.75100
O3449       O  0.94559658  0.75516569  0.15859373    -0.75000
O3450       O  0.99602528  0.75102987  0.21847054    -0.75000
O3451       O  0.95673163  0.70939016  0.18131610    -0.74900
O3452       O  0.98801180  0.79765606  0.19361860    -0.75000
Ni3453     Ni  0.92882148  0.73929813  0.21726415     1.25400
Ni3454     Ni  0.97303671  0.75359286  0.18707677     1.25400
C3455       C  0.97329310  0.80712434  0.20918483     0.87300
C3456       C  0.93027574  0.68751538  0.19131050     0.87200
C3457       C  0.98276164  0.74302684  0.24203126     0.87200
C3458       C  0.91704219  0.74986082  0.16436037     0.87400
O3459       O  0.98584982  0.86286493  0.20152164    -0.74900
O3460       O  0.54467049  0.95512856  0.21520595    -0.75000
O3461       O  0.54112128  0.91156952  0.17770155    -0.75000
O3462       O  0.98901423  0.90875045  0.23596756    -0.75100
O3463       O  0.51513717  0.89420187  0.26512046    -0.75000
O3464       O  0.56967765  0.89832410  0.20525704    -0.75000
O3465       O  0.57204851  0.93997795  0.24238186    -0.74900
O3466       O  0.51503059  0.85169317  0.23012113    -0.75000
Ni3467     Ni  0.51418737  0.91001642  0.20643577     1.25400
Ni3468     Ni  0.54413663  0.89576716  0.23664356     1.25400
C3469       C  0.99083177  0.84220253  0.21454553     0.87300
C3470       C  0.56745210  0.96183379  0.23237729     0.87200
C3471       C  0.56440908  0.90631656  0.18169103     0.87200
C3472       C  0.99187594  0.89948560  0.25934331     0.87400
O3473       O  0.70207328  0.52958486  0.11819918    -0.74900
O3474       O  0.73550582  0.62183443  0.13190221    -0.75000
O3475       O  0.74480479  0.57547694  0.15266377    -0.75000
O3476       O  0.69549059  0.57826932  0.09437859    -0.75100
O3477       O  0.65367653  0.56498989  0.12191680    -0.75000
O3478       O  0.70411237  0.56086952  0.18179441    -0.75000
O3479       O  0.69296813  0.60663723  0.15906665    -0.74900
O3480       O  0.66169970  0.51837208  0.14677328    -0.75000
Ni3481     Ni  0.72088424  0.57673180  0.12312313     1.25400
Ni3482     Ni  0.67666886  0.56243470  0.15331082     1.25400
C3483       C  0.67641980  0.50890507  0.13120752     0.87300
C3484       C  0.71942143  0.62851305  0.14907097     0.87200
C3485       C  0.73266790  0.56617634  0.17602775     0.87200
C3486       C  0.66693920  0.57299262  0.09835578     0.87400
O3487       O  0.66386681  0.95315991  0.13887416    -0.74900
O3488       O  0.60504460  0.86089843  0.12517936    -0.75000
O3489       O  0.66070327  0.90727849  0.10442350    -0.75000
O3490       O  0.60859240  0.90445257  0.16268901    -0.75100
O3491       O  0.58003951  0.91770368  0.13513471    -0.75000
O3492       O  0.63458379  0.92183285  0.07527198    -0.75000
O3493       O  0.57766999  0.87605490  0.09800513    -0.74900
O3494       O  0.63468894  0.96433675  0.11027579    -0.75000
Ni3495     Ni  0.63552824  0.90600892  0.13395494     1.25400
Ni3496     Ni  0.60558260  0.92026438  0.10374857     1.25400
C3497       C  0.65888653  0.97382397  0.12585247     0.87300
C3498       C  0.58226495  0.85419724  0.10800673     0.87200
C3499       C  0.65784432  0.91654724  0.08104824     0.87200
C3500       C  0.58530656  0.90970786  0.15870038     0.87400
O3501       O  0.61428710  0.61977504  0.05551782    -0.74900
O3502       O  0.58085648  0.52752662  0.04180809    -0.75000
O3503       O  0.62087043  0.57108915  0.07933433    -0.75000
O3504       O  0.57155610  0.57388467  0.02105074    -0.75100
O3505       O  0.61224870  0.58849469  0.49191998    -0.75000
O3506       O  0.66268538  0.58437232  0.05179635    -0.75000
O3507       O  0.62339524  0.54272762  0.01464417    -0.74900
O3508       O  0.65466083  0.63099109  0.02694304    -0.75000
Ni3509     Ni  0.59547678  0.57262834  0.05059054     1.25400
Ni3510     Ni  0.63969283  0.58692905  0.02040286     1.25400
C3511       C  0.63994091  0.64045606  0.04251041     0.87300
C3512       C  0.59694078  0.52085003  0.02463887     0.87200
C3513       C  0.64942207  0.57636761  0.07535698     0.87200
C3514       C  0.58369265  0.58318598  0.99768696     0.87400
O3515       O  0.65250155  0.69619860  0.03485106    -0.74900
O3516       O  0.71133033  0.78845999  0.04853994    -0.75000
O3517       O  0.70777773  0.74489998  0.01103495    -0.75000
O3518       O  0.65566946  0.74208543  0.06929844    -0.75100
O3519       O  0.68178658  0.72753079  0.09845210    -0.75000
O3520       O  0.73632757  0.73164718  0.03859138    -0.75000
O3521       O  0.73870201  0.77330228  0.07571669    -0.74900
O3522       O  0.68167573  0.68502062  0.06345259    -0.75000
Ni3523     Ni  0.68084351  0.74334960  0.03976767     1.25400
Ni3524     Ni  0.71078593  0.72909301  0.06997666     1.25400
C3525       C  0.65747917  0.67553442  0.04787436     0.87300
C3526       C  0.73411053  0.79516212  0.06571276     0.87200
C3527       C  0.73106237  0.73964184  0.01502511     0.87200
C3528       C  0.65852783  0.73281808  0.09267366     0.87400
O3529       O  0.86873892  0.99699987  0.70153105    -0.74900
O3530       O  0.90218428  0.93819454  0.71523300    -0.75000
O3531       O  0.86216496  0.94173739  0.67770984    -0.75000
O3532       O  0.91147491  0.99384620  0.73599449    -0.75100
O3533       O  0.87078500  0.96775146  0.76512642    -0.75000
O3534       O  0.82035281  0.91319388  0.70524870    -0.75000
O3535       O  0.85964746  0.91084435  0.74239726    -0.74900
O3536       O  0.82836722  0.96783036  0.73010562    -0.75000
Ni3537     Ni  0.88755625  0.96867027  0.70645417     1.25400
Ni3538     Ni  0.84334286  0.93874218  0.73664249     1.25400
C3539       C  0.84308406  0.99202008  0.71453981     0.87300
C3540       C  0.88610302  0.91542919  0.73240080     0.87200
C3541       C  0.83361632  0.91845758  0.68168787     0.87200
C3542       C  0.89932393  0.49101104  0.75936145     0.87400
O3543       O  0.83051567  0.53520588  0.72219828    -0.74900
O3544       O  0.77170391  0.56865556  0.70850962    -0.75000
O3545       O  0.77524644  0.52864278  0.74601724    -0.75000
O3546       O  0.82735702  0.57792873  0.68774876    -0.75100
O3547       O  0.80123047  0.53725482  0.65859888    -0.75000
O3548       O  0.74669908  0.98683518  0.71846872    -0.75000
O3549       O  0.74432227  0.52612640  0.68133488    -0.74900
O3550       O  0.80132946  0.49485047  0.69360307    -0.75000
Ni3551     Ni  0.80218231  0.55402293  0.71728180     1.25400
Ni3552     Ni  0.77222838  0.50982261  0.68707667     1.25400
C3553       C  0.82552968  0.50956037  0.70917727     0.87300
C3554       C  0.74892210  0.55258033  0.69133793     0.87200
C3555       C  0.75195549  0.50010173  0.74202874     0.87200
C3556       C  0.82449410  0.56579968  0.66437361     0.87400
O3557       O  0.98584724  0.61415812  0.95151294    -0.74900
O3558       O  0.54465667  0.58070629  0.96520447    -0.75000
O3559       O  0.98900135  0.57143240  0.98596158    -0.75000
O3560       O  0.54111766  0.62072072  0.92769704    -0.75100
O3561       O  0.56967756  0.66252156  0.95525241    -0.75000
O3562       O  0.51512557  0.61210432  0.51511383    -0.75000
O3563       O  0.57203587  0.62323393  0.99238127    -0.74900
O3564       O  0.51503163  0.65451140  0.98011051    -0.75000
Ni3565     Ni  0.51417908  0.59533956  0.95643055     1.25400
Ni3566     Ni  0.54413085  0.63953795  0.98663790     1.25400
C3567       C  0.99083242  0.63980228  0.96453482     0.87300
C3568       C  0.56743720  0.59678045  0.98237695     0.87200
C3569       C  0.99186159  0.58355873  0.50933600     0.87200
C3570       C  0.56440854  0.64926039  0.93168670     0.87400
O3571       O  0.94764029  0.65236364  0.97218454    -0.74900
O3572       O  0.91419625  0.71116950  0.95848292    -0.75000
O3573       O  0.90490314  0.65551522  0.93772244    -0.75000
O3574       O  0.95421703  0.70762825  0.99600355    -0.75100
O3575       O  0.99602752  0.73617140  0.96846283    -0.75000
O3576       O  0.94559260  0.68160615  0.90858931    -0.75000
O3577       O  0.95672991  0.73851585  0.93131456    -0.74900
O3578       O  0.98801218  0.68153220  0.94360980    -0.75000
Ni3579     Ni  0.92882378  0.68069361  0.96726125     1.25400
Ni3580     Ni  0.97303577  0.71061929  0.93707098     1.25400
C3581       C  0.97329410  0.65734236  0.95917605     0.87300
C3582       C  0.93027637  0.73393442  0.94131410     0.87200
C3583       C  0.91703804  0.65835378  0.91435760     0.87200
C3584       C  0.98276598  0.73090977  0.99202472     0.87400
O3585       O  0.61430348  0.98568780  0.80551589    -0.74900
O3586       O  0.58086214  0.54451041  0.79181491    -0.75000
O3587       O  0.57157340  0.98884905  0.77105019    -0.75000
O3588       O  0.62087668  0.54095797  0.82933697    -0.75100
O3589       O  0.66269038  0.56949587  0.80179810    -0.75000
O3590       O  0.61225056  0.51494147  0.74192139    -0.75000
O3591       O  0.62339967  0.57185366  0.76464968    -0.74900
O3592       O  0.65466328  0.51485441  0.77694185    -0.75000
Ni3593     Ni  0.59548104  0.51402771  0.80059303     1.25400
Ni3594     Ni  0.63969617  0.54394909  0.77040464     1.25400
C3595       C  0.63995856  0.99066332  0.79251015     0.87300
C3596       C  0.59694605  0.56727542  0.77464651     0.87200
C3597       C  0.58370926  0.99168407  0.74768614     0.87200
C3598       C  0.64942815  0.56423423  0.82535934     0.87400
O3599       O  0.65251178  0.94747810  0.78485362    -0.74900
O3600       O  0.71133063  0.91403768  0.79854555    -0.75000
O3601       O  0.65567401  0.90475769  0.81930497    -0.75000
O3602       O  0.70778364  0.95404697  0.76103719    -0.75100
O3603       O  0.73634015  0.99585082  0.78859067    -0.75000
O3604       O  0.68179684  0.94543216  0.84845496    -0.75000
O3605       O  0.73870841  0.95656842  0.82571944    -0.74900
O3606       O  0.68169294  0.98783327  0.81345056    -0.75000
Ni3607     Ni  0.68084839  0.92866514  0.78977213     1.25400
Ni3608     Ni  0.71079770  0.97286639  0.81997732     1.25400
C3609       C  0.65749491  0.97312319  0.79787433     0.87300
C3610       C  0.73411227  0.93011581  0.81571677     0.87200
C3611       C  0.65853505  0.91688629  0.84267953     0.87200
C3612       C  0.73107125  0.98258856  0.76502523     0.87400
O3613       O  0.70207750  0.66366890  0.86819996    -0.74900
O3614       O  0.73551147  0.60485503  0.88190391    -0.75000
O3615       O  0.69549632  0.60840356  0.84438034    -0.75000
O3616       O  0.74480874  0.66051087  0.90266585    -0.75100
O3617       O  0.70411627  0.63441959  0.93179617    -0.75000
O3618       O  0.65368219  0.57986382  0.87191856    -0.75000
O3619       O  0.69297345  0.57750917  0.90906799    -0.74900
O3620       O  0.66170351  0.63450312  0.89677372    -0.75000
Ni3621     Ni  0.72088927  0.63533508  0.87312477     1.25400
Ni3622     Ni  0.67667367  0.60541104  0.90331213     1.25400
C3623       C  0.67642308  0.65869185  0.88120760     0.87300
C3624       C  0.71942760  0.58208944  0.89907108     0.87200
C3625       C  0.66694467  0.58512561  0.84835701     0.87200
C3626       C  0.73267142  0.65767152  0.92603043     0.87400
O3627       O  0.66386919  0.70187630  0.88886703    -0.74900
O3628       O  0.60505042  0.73531733  0.87517834    -0.75000
O3629       O  0.60859821  0.69530783  0.91268516    -0.75000
O3630       O  0.66070643  0.74459729  0.85441722    -0.75100
O3631       O  0.63458328  0.70392348  0.82526674    -0.75000
O3632       O  0.58004002  0.65350482  0.88513107    -0.75000
O3633       O  0.57767253  0.69278789  0.84800306    -0.74900
O3634       O  0.63468672  0.66152134  0.86027030    -0.75000
Ni3635     Ni  0.63553267  0.72068949  0.88395028     1.25400
Ni3636     Ni  0.60558245  0.67648904  0.85374444     1.25400
C3637       C  0.65888523  0.67623140  0.87584534     0.87300
C3638       C  0.58226875  0.71924060  0.85800724     0.87200
C3639       C  0.58530822  0.66676610  0.90869696     0.87200
C3640       C  0.65784498  0.73247024  0.83104315     0.87400
O3641       O  0.81918667  0.78081559  0.61818350    -0.74900
O3642       O  0.87800659  0.74737731  0.63187624    -0.75000
O3643       O  0.82234899  0.73809607  0.65263454    -0.75000
O3644       O  0.87446021  0.78738726  0.59436766    -0.75100
O3645       O  0.90301600  0.82919060  0.62192178    -0.75000
O3646       O  0.84846977  0.77877111  0.68178447    -0.75000
O3647       O  0.90538248  0.78990696  0.65905153    -0.74900
O3648       O  0.84836732  0.82117204  0.64677970    -0.75000
Ni3649     Ni  0.84752423  0.76200427  0.62310219     1.25400
Ni3650     Ni  0.87747210  0.80620558  0.65330781     1.25400
C3651       C  0.82416808  0.80646028  0.63120441     0.87300
C3652       C  0.90078659  0.76345508  0.64904898     0.87200
C3653       C  0.82520770  0.75022496  0.67600914     0.87200
C3654       C  0.89774746  0.81592917  0.59835593     0.87400
O3655       O  0.78097349  0.81901843  0.63885105    -0.74900
O3656       O  0.74753347  0.87782841  0.62514941    -0.75000
O3657       O  0.73823631  0.82217258  0.60438868    -0.75000
O3658       O  0.78755247  0.87428309  0.66266976    -0.75100
O3659       O  0.82936343  0.90282426  0.63512913    -0.75000
O3660       O  0.77892501  0.84826181  0.57525475    -0.75000
O3661       O  0.79006764  0.90517302  0.59798118    -0.74900
O3662       O  0.82134417  0.84818432  0.61027478    -0.75000
Ni3663     Ni  0.76215835  0.84735008  0.63392745     1.25400
Ni3664     Ni  0.80637023  0.87727368  0.60373661     1.25400
C3665       C  0.80662745  0.82399725  0.62584220     0.87300
C3666       C  0.76361524  0.90059414  0.60798056     0.87200
C3667       C  0.75036970  0.82501098  0.58102390     0.87200
C3668       C  0.81610172  0.89756251  0.65869031     0.87400
O3669       O  0.53541293  0.83034966  0.53486351    -0.74900
O3670       O  0.56884377  0.77153258  0.54856731    -0.75000
O3671       O  0.52883011  0.77508299  0.51104346    -0.75000
O3672       O  0.57814353  0.82718882  0.56932917    -0.75100
O3673       O  0.53745126  0.80109847  0.59845986    -0.75000
O3674       O  0.98701611  0.74654414  0.53858152    -0.75000
O3675       O  0.52630506  0.74418766  0.57573101    -0.74900
O3676       O  0.49503934  0.80118474  0.56343767    -0.75000
Ni3677     Ni  0.55422352  0.80201424  0.53978807     1.25400
Ni3678     Ni  0.51000773  0.77209116  0.56997558     1.25400
C3679       C  0.50975967  0.82537306  0.54787134     0.87300
C3680       C  0.55275871  0.74876628  0.56573432     0.87200
C3681       C  0.50028051  0.75180562  0.51502120     0.87200
C3682       C  0.56600783  0.82434898  0.59269370     0.87400
O3683       O  0.99720291  0.86855599  0.55553169    -0.74900
O3684       O  0.93837696  0.90198948  0.54184732    -0.75000
O3685       O  0.94193102  0.86198139  0.57935283    -0.75000
O3686       O  0.99403397  0.91127516  0.52108338    -0.75100
O3687       O  0.96791149  0.87060082  0.99193331    -0.75000
O3688       O  0.91337494  0.82017741  0.55179912    -0.75000
O3689       O  0.91099938  0.85945861  0.51467359    -0.74900
O3690       O  0.96802192  0.82820086  0.52693459    -0.75000
Ni3691     Ni  0.96886277  0.88736540  0.55061714     1.25400
Ni3692     Ni  0.93891369  0.84316412  0.52041178     1.25400
C3693       C  0.99222073  0.84291208  0.54250935     0.87300
C3694       C  0.91559469  0.88590999  0.52467733     0.87200
C3695       C  0.91864352  0.83343778  0.57536529     0.87200
C3696       C  0.49117229  0.89914651  0.49770852     0.87400
O3697       O  0.78662502  0.94745769  0.53485348    -0.74900
O3698       O  0.69435548  0.91404083  0.54855380    -0.75000
O3699       O  0.73792061  0.95404449  0.51104162    -0.75000
O3700       O  0.74072999  0.90473487  0.56929926    -0.75100
O3701       O  0.75534049  0.94540575  0.59845515    -0.75000
O3702       O  0.75123527  0.99585132  0.53859696    -0.75000
O3703       O  0.70957447  0.95657541  0.57572699    -0.74900
O3704       O  0.79785585  0.98780638  0.56346115    -0.75000
Ni3705     Ni  0.73946646  0.92865433  0.53977330     1.25400
Ni3706     Ni  0.75378454  0.97285450  0.56998352     1.25400
C3707       C  0.80731773  0.97309658  0.54788071     0.87300
C3708       C  0.68768512  0.93012457  0.56572887     0.87200
C3709       C  0.74321657  0.98259400  0.51502890     0.87200
C3710       C  0.75002855  0.91685821  0.59267229     0.87400
O3711       O  0.86309185  0.98569244  0.55554391    -0.74900
O3712       O  0.95534894  0.54453959  0.54183161    -0.75000
O3713       O  0.91178572  0.54097783  0.57934456    -0.75000
O3714       O  0.90898274  0.98886428  0.52109697    -0.75100
O3715       O  0.89436415  0.51492282  0.99193034    -0.75000
O3716       O  0.89847098  0.56947019  0.55178867    -0.75000
O3717       O  0.94013221  0.57185823  0.51465881    -0.74900
O3718       O  0.85184927  0.51480223  0.52692525    -0.75000
Ni3719     Ni  0.91023781  0.51404083  0.55061265     1.25400
Ni3720     Ni  0.89592116  0.54392515  0.52040233     1.25400
C3721       C  0.84240095  0.99063857  0.54251582     0.87300
C3722       C  0.96202019  0.56729553  0.52465642     0.87200
C3723       C  0.90648962  0.56423052  0.57535570     0.87200
C3724       C  0.89968537  0.99169138  0.49772280     0.87400
O3725       O  0.95327750  0.66366747  0.61817387    -0.74900
O3726       O  0.86100744  0.60481834  0.63187819    -0.75000
O3727       O  0.90739036  0.66049739  0.65262356    -0.75000
O3728       O  0.90456666  0.60837547  0.59436270    -0.75100
O3729       O  0.91787983  0.57988071  0.62191736    -0.75000
O3730       O  0.92199256  0.63442710  0.68177756    -0.75000
O3731       O  0.87622131  0.57749484  0.65904812    -0.74900
O3732       O  0.96450481  0.63454538  0.64678104    -0.75000
Ni3733     Ni  0.90611904  0.63531368  0.62309574     1.25400
Ni3734     Ni  0.92043243  0.60542516  0.65330424     1.25400
C3735       C  0.97396858  0.65871979  0.63120135     0.87300
C3736       C  0.85433414  0.58206131  0.64905248     0.87200
C3737       C  0.91668664  0.65766732  0.67599721     0.87200
C3738       C  0.90986110  0.58512127  0.59835013     0.87400
O3739       O  0.52974265  0.70190230  0.63886430    -0.74900
O3740       O  0.62201405  0.73532379  0.62516660    -0.75000
O3741       O  0.57563830  0.74462551  0.60441881    -0.75000
O3742       O  0.57844897  0.69531985  0.66267898    -0.75100
O3743       O  0.56513738  0.65351295  0.63512456    -0.75000
O3744       O  0.56103111  0.70395413  0.57526380    -0.75000
O3745       O  0.60679805  0.69278892  0.59799456    -0.74900
O3746       O  0.51851508  0.66155345  0.61025801    -0.75000
Ni3747     Ni  0.57690207  0.72070814  0.63394590     1.25400
Ni3748     Ni  0.56258731  0.67650756  0.60373681     1.25400
C3749       C  0.50905263  0.67626360  0.62583762     0.87300
C3750       C  0.62868489  0.71923991  0.60799274     0.87200
C3751       C  0.56634230  0.73250201  0.58104521     0.87200
C3752       C  0.57315546  0.66677158  0.65869161     0.87400
O3753       O  0.61995233  0.61413376  0.70151285    -0.74900
O3754       O  0.52768042  0.58070247  0.71521568    -0.75000
O3755       O  0.57123933  0.62070789  0.67769959    -0.75000
O3756       O  0.57406327  0.57141088  0.73596153    -0.75100
O3757       O  0.58866854  0.61208372  0.76511462    -0.75000
O3758       O  0.58454741  0.66251483  0.70525294    -0.75000
O3759       O  0.54289322  0.62323775  0.74238675    -0.74900
O3760       O  0.63117763  0.65448465  0.73011633    -0.75000
Ni3761     Ni  0.57279274  0.59532349  0.70643370     1.25400
Ni3762     Ni  0.58710467  0.63952511  0.73664088     1.25400
C3763       C  0.64064242  0.63977427  0.71453753     0.87300
C3764       C  0.52100736  0.59678452  0.73239067     0.87200
C3765       C  0.57652986  0.64925488  0.68168647     0.87200
C3766       C  0.58336068  0.58353746  0.75933499     0.87400
O3767       O  0.69641525  0.65236559  0.72220300    -0.74900
O3768       O  0.78868866  0.71120714  0.70850250    -0.75000
O3769       O  0.74512953  0.70765410  0.74601538    -0.75000
O3770       O  0.74230357  0.65553116  0.68775667    -0.75100
O3771       O  0.72770390  0.68160184  0.65860090    -0.75000
O3772       O  0.73182487  0.73615459  0.71845954    -0.75000
O3773       O  0.77348048  0.73853238  0.68132914    -0.74900
O3774       O  0.68519384  0.68149240  0.69359636    -0.75000
Ni3775     Ni  0.74357528  0.68071533  0.71728325     1.25400
Ni3776     Ni  0.72926804  0.71060729  0.68707314     1.25400
C3777       C  0.67572717  0.65731693  0.70917611     0.87300
C3778       C  0.79536502  0.73396396  0.69132723     0.87200
C3779       C  0.73984103  0.73091191  0.74202711     0.87200
C3780       C  0.73300882  0.65836164  0.66438295     0.87400
O3781       O  0.78662866  0.83034787  0.78484845    -0.74900
O3782       O  0.69435759  0.77149160  0.79854820    -0.75000
O3783       O  0.74073480  0.82717007  0.81929644    -0.75000
O3784       O  0.73792145  0.77505684  0.76103422    -0.75100
O3785       O  0.75123451  0.74656125  0.78858805    -0.75000
O3786       O  0.75533946  0.80110204  0.84845051    -0.75000
O3787       O  0.70957296  0.74416945  0.82571801    -0.74900
O3788       O  0.79785647  0.80122576  0.81345492    -0.75000
Ni3789     Ni  0.73946938  0.80199074  0.78976810     1.25400
Ni3790     Ni  0.75378408  0.77210288  0.81997617     1.25400
C3791       C  0.80731908  0.82539969  0.79787535     0.87300
C3792       C  0.68768676  0.74873414  0.81572184     0.87200
C3793       C  0.75002961  0.82433879  0.84267033     0.87200
C3794       C  0.74321566  0.75180277  0.76502124     0.87400
O3795       O  0.86309583  0.86858180  0.80553542    -0.74900
O3796       O  0.95536535  0.90199570  0.79183653    -0.75000
O3797       O  0.90899084  0.91129796  0.77108556    -0.75000
O3798       O  0.91180014  0.86199687  0.82935209    -0.75100
O3799       O  0.89848391  0.82018665  0.80180051    -0.75000
O3800       O  0.89438153  0.87062221  0.74193487    -0.75000
O3801       O  0.94014651  0.85945638  0.76466908    -0.74900
O3802       O  0.85186473  0.82822925  0.77693214    -0.75000
Ni3803     Ni  0.91025451  0.88738373  0.80061598     1.25400
Ni3804     Ni  0.89593611  0.84317886  0.77041097     1.25400
C3805       C  0.84240345  0.84294219  0.79251051     0.87300
C3806       C  0.96203535  0.88590895  0.77466434     0.87200
C3807       C  0.89969236  0.89916971  0.74771286     0.87200
C3808       C  0.90650259  0.83344726  0.82536675     0.87400
O3809       O  0.95328123  0.78079300  0.86818609    -0.74900
O3810       O  0.86101184  0.74737424  0.88188757    -0.75000
O3811       O  0.90457562  0.78737872  0.84437448    -0.75000
O3812       O  0.90738789  0.73807129  0.90263298    -0.75100
O3813       O  0.92199863  0.77874352  0.93178762    -0.75000
O3814       O  0.91788973  0.82918581  0.87192930    -0.75000
O3815       O  0.87622983  0.78990885  0.90906046    -0.74900
O3816       O  0.96451215  0.82114310  0.89679218    -0.75000
Ni3817     Ni  0.90612280  0.76198911  0.87310643     1.25400
Ni3818     Ni  0.92044057  0.80619019  0.90331581     1.25400
C3819       C  0.97397372  0.80643167  0.88121236     0.87300
C3820       C  0.85434233  0.76345774  0.89906311     0.87200
C3821       C  0.90987175  0.81592787  0.84836218     0.87200
C3822       C  0.91668760  0.75019633  0.92600545     0.87400
O3823       O  0.52974668  0.81902395  0.88887768    -0.74900
O3824       O  0.62201899  0.87786899  0.87517516    -0.75000
O3825       O  0.57845803  0.87431561  0.91268641    -0.75000
O3826       O  0.57563624  0.82218849  0.85443279    -0.75100
O3827       O  0.56103655  0.84825551  0.82527338    -0.75000
O3828       O  0.56514839  0.90281010  0.88512805    -0.75000
O3829       O  0.60680748  0.90519008  0.84800046    -0.74900
O3830       O  0.51852251  0.84814397  0.86026565    -0.75000
Ni3831     Ni  0.57690604  0.84737524  0.88395698     1.25400
Ni3832     Ni  0.56259565  0.87726162  0.85374342     1.25400
C3833       C  0.50905751  0.82397181  0.87584859     0.87300
C3834       C  0.62869176  0.90062374  0.85799935     0.87200
C3835       C  0.57316614  0.89757117  0.90869644     0.87200
C3836       C  0.56634304  0.82501740  0.83105782     0.87400
O3837       O  0.69641564  0.53522788  0.97220016    -0.74900
O3838       O  0.78868728  0.56865220  0.95850334    -0.75000
O3839       O  0.74230999  0.57795086  0.93775537    -0.75000
O3840       O  0.74512252  0.52864592  0.99601587    -0.75100
O3841       O  0.73182650  0.98685166  0.96846782    -0.75000
O3842       O  0.72770383  0.53727950  0.90860061    -0.75000
O3843       O  0.77347383  0.52611823  0.93133080    -0.74900
O3844       O  0.68518911  0.49487820  0.94359501    -0.75000
Ni3845     Ni  0.74357497  0.55403414  0.96728259     1.25400
Ni3846     Ni  0.72926191  0.50983389  0.93707356     1.25400
C3847       C  0.67572519  0.50958928  0.95917300     0.87300
C3848       C  0.79535920  0.55256985  0.94132786     0.87200
C3849       C  0.73301327  0.56582611  0.91438205     0.87200
C3850       C  0.73982947  0.50009721  0.99202875     0.87400
O3851       O  0.61996450  0.99700818  0.95151461    -0.74900
O3852       O  0.52769106  0.93816656  0.96521474    -0.75000
O3853       O  0.57407656  0.99384183  0.98596137    -0.75000
O3854       O  0.57125073  0.94172013  0.92770113    -0.75100
O3855       O  0.58455774  0.91322133  0.95525687    -0.75000
O3856       O  0.58867228  0.96776787  0.51511726    -0.75000
O3857       O  0.54289884  0.91083881  0.99238537    -0.74900
O3858       O  0.63118549  0.96788246  0.98012295    -0.75000
Ni3859     Ni  0.57280474  0.96865846  0.95643409     1.25400
Ni3860     Ni  0.58711148  0.93876574  0.98664380     1.25400
C3861       C  0.64065312  0.99205758  0.96454297     0.87300
C3862       C  0.52101570  0.91540832  0.98238902     0.87200
C3863       C  0.58335584  0.49100355  0.50932472     0.87200
C3864       C  0.57654080  0.91846311  0.93168901     0.87400
O3865       O  0.83052022  0.78648837  0.97220951    -0.74900
O3866       O  0.77170558  0.69422541  0.95851536    -0.75000
O3867       O  0.82736202  0.74061001  0.93775896    -0.75000
O3868       O  0.77524694  0.73777809  0.99602455    -0.75100
O3869       O  0.74669202  0.75102516  0.96846900    -0.75000
O3870       O  0.80123844  0.75515908  0.90860712    -0.75000
O3871       O  0.74432749  0.70937681  0.93134028    -0.74900
O3872       O  0.80134012  0.79766157  0.94361066    -0.75000
Ni3873     Ni  0.80218515  0.73933707  0.96729064     1.25400
Ni3874     Ni  0.77223630  0.75358764  0.93708346     1.25400
C3875       C  0.82553801  0.80715078  0.95918663     0.87300
C3876       C  0.74892600  0.68752078  0.94134239     0.87200
C3877       C  0.82450099  0.74987722  0.91438420     0.87200
C3878       C  0.75196004  0.74303139  0.99203489     0.87400
O3879       O  0.86873384  0.86290803  0.95153997    -0.74900
O3880       O  0.90217702  0.95516006  0.96524284    -0.75000
O3881       O  0.91147085  0.90879969  0.98600249    -0.75000
O3882       O  0.86215804  0.91159669  0.92772049    -0.75100
O3883       O  0.82034644  0.89832382  0.95526000    -0.75000
O3884       O  0.87078081  0.89419456  0.51513523    -0.75000
O3885       O  0.85964259  0.93996679  0.99241051    -0.74900
O3886       O  0.82836143  0.85169950  0.98011412    -0.75000
Ni3887     Ni  0.88755030  0.91005615  0.95646371     1.25400
Ni3888     Ni  0.84333743  0.89576372  0.98665323     1.25400
C3889       C  0.84307821  0.84222980  0.96454812     0.87300
C3890       C  0.88609653  0.96184181  0.98241322     0.87200
C3891       C  0.89933567  0.89950116  0.50936765     0.87200
C3892       C  0.83360832  0.90632482  0.93169869     0.87400
O3893       O  0.81917651  0.52954137  0.86818267    -0.74900
O3894       O  0.87800127  0.62180235  0.88187423    -0.75000
O3895       O  0.87445196  0.57824606  0.84436611    -0.75000
O3896       O  0.82234251  0.57542285  0.90263347    -0.75100
O3897       O  0.84846304  0.56086832  0.93178378    -0.75000
O3898       O  0.90300495  0.56499531  0.87192077    -0.75000
O3899       O  0.90537591  0.60664670  0.90904919    -0.74900
O3900       O  0.84835471  0.51836366  0.89677991    -0.75000
Ni3901     Ni  0.84751669  0.57669171  0.87310071     1.25400
Ni3902     Ni  0.87746283  0.56243637  0.90330669     1.25400
C3903       C  0.82415619  0.50887736  0.88120456     0.87300
C3904       C  0.90078070  0.62850416  0.89904612     0.87200
C3905       C  0.89773803  0.57299002  0.84835407     0.87200
C3906       C  0.82520177  0.56615266  0.92600839     0.87400
O3907       O  0.78096598  0.95311549  0.88885745    -0.74900
O3908       O  0.74752967  0.86086511  0.87515119    -0.75000
O3909       O  0.78754347  0.90442766  0.91267688    -0.75000
O3910       O  0.73823289  0.90722450  0.85439217    -0.75100
O3911       O  0.77892482  0.92183051  0.82526121    -0.75000
O3912       O  0.82935821  0.91770697  0.88513941    -0.75000
O3913       O  0.79006885  0.87606294  0.84798829    -0.74900
O3914       O  0.82133881  0.96432682  0.86028306    -0.75000
Ni3915     Ni  0.76215207  0.90596775  0.88393229     1.25400
Ni3916     Ni  0.80636782  0.92026423  0.85374501     1.25400
C3917       C  0.80661986  0.97379366  0.87584976     0.87300
C3918       C  0.76361340  0.85418619  0.85798376     0.87200
C3919       C  0.81609381  0.90970294  0.90870065     0.87200
C3920       C  0.75036902  0.91652358  0.83102770     0.87400
O3921       O  0.99719507  0.61981877  0.80553523    -0.74900
O3922       O  0.93836296  0.52755909  0.79184482    -0.75000
O3923       O  0.99402421  0.57393362  0.77108513    -0.75000
O3924       O  0.94191814  0.57111826  0.82935222    -0.75100
O3925       O  0.91336869  0.58437390  0.80179802    -0.75000
O3926       O  0.96790550  0.58848952  0.74193429    -0.75000
O3927       O  0.91099008  0.54271846  0.76467136    -0.74900
O3928       O  0.96802075  0.63099919  0.77693597    -0.75000
Ni3929     Ni  0.96885136  0.57266865  0.80061775     1.25400
Ni3930     Ni  0.93890828  0.58692754  0.77041159     1.25400
C3931       C  0.99221802  0.64048348  0.79251265     0.87300
C3932       C  0.91558272  0.52085913  0.77467384     0.87200
C3933       C  0.49116496  0.58320315  0.74771024     0.87200
C3934       C  0.91863395  0.57637790  0.82536406     0.87400
O3935       O  0.53541253  0.69624215  0.78486882    -0.74900
O3936       O  0.56884354  0.78849085  0.79857663    -0.75000
O3937       O  0.57814555  0.74213356  0.81933372    -0.75000
O3938       O  0.52882922  0.74492704  0.76105218    -0.75100
O3939       O  0.98701535  0.73164573  0.78859135    -0.75000
O3940       O  0.53745437  0.72752331  0.84846614    -0.75000
O3941       O  0.52630650  0.77329013  0.82574283    -0.74900
O3942       O  0.49503987  0.68502752  0.81344465    -0.75000
Ni3943     Ni  0.55422338  0.74338892  0.78979509     1.25400
Ni3944     Ni  0.51000879  0.72908911  0.81998435     1.25400
C3945       C  0.50975840  0.67556117  0.79787659     0.87300
C3946       C  0.55275989  0.79516897  0.81574643     0.87200
C3947       C  0.56601014  0.73283233  0.84269821     0.87200
C3948       C  0.50027735  0.73964977  0.76502946     0.87400
O3949       O  0.94763804  0.78644551  0.72219176    -0.74900
O3950       O  0.91419416  0.69419502  0.70848044    -0.75000
O3951       O  0.95421154  0.73775306  0.74600850    -0.75000
O3952       O  0.90490449  0.74056047  0.68772435    -0.75100
O3953       O  0.94559671  0.75516565  0.65859385    -0.75000
O3954       O  0.99602518  0.75102987  0.71847063    -0.75000
O3955       O  0.95673143  0.70939001  0.68131609    -0.74900
O3956       O  0.98801180  0.79765604  0.69361859    -0.75000
Ni3957     Ni  0.92882149  0.73929814  0.71726415     1.25400
Ni3958     Ni  0.97303667  0.75359284  0.68707680     1.25400
C3959       C  0.97329281  0.80712410  0.70918498     0.87300
C3960       C  0.93027598  0.68751556  0.69131047     0.87200
C3961       C  0.98276193  0.74302688  0.74203120     0.87200
C3962       C  0.91704173  0.74986076  0.66436048     0.87400
O3963       O  0.98584984  0.86286468  0.70152168    -0.74900
O3964       O  0.54467047  0.95512857  0.71520588    -0.75000
O3965       O  0.54112140  0.91156958  0.67770161    -0.75000
O3966       O  0.98901425  0.90875038  0.73596750    -0.75100
O3967       O  0.51513731  0.89420188  0.76512040    -0.75000
O3968       O  0.56967758  0.89832401  0.70525733    -0.75000
O3969       O  0.57204843  0.93997793  0.74238189    -0.74900
O3970       O  0.51503054  0.85169319  0.73012118    -0.75000
Ni3971     Ni  0.51418735  0.91001643  0.70643572     1.25400
Ni3972     Ni  0.54413663  0.89576716  0.73664358     1.25400
C3973       C  0.99083193  0.84220336  0.71454531     0.87300
C3974       C  0.56745205  0.96183385  0.73237729     0.87200
C3975       C  0.56440891  0.90631679  0.68169040     0.87200
C3976       C  0.99187549  0.89948566  0.75934326     0.87400
O3977       O  0.70207332  0.52958488  0.61819914    -0.74900
O3978       O  0.73550574  0.62183446  0.63190232    -0.75000
O3979       O  0.74480484  0.57547697  0.65266375    -0.75000
O3980       O  0.69549065  0.57826934  0.59437852    -0.75100
O3981       O  0.65367659  0.56498989  0.62191678    -0.75000
O3982       O  0.70411245  0.56086957  0.68179439    -0.75000
O3983       O  0.69296795  0.60663706  0.65906671    -0.74900
O3984       O  0.66169973  0.51837207  0.64677326    -0.75000
Ni3985     Ni  0.72088425  0.57673183  0.62312308     1.25400
Ni3986     Ni  0.67666887  0.56243471  0.65331080     1.25400
C3987       C  0.67641983  0.50890508  0.63120749     0.87300
C3988       C  0.71942197  0.62851321  0.64907057     0.87200
C3989       C  0.73266788  0.56617628  0.67602770     0.87200
C3990       C  0.66693893  0.57299264  0.59835550     0.87400
O3991       O  0.66386670  0.95315995  0.63887416    -0.74900
O3992       O  0.60504452  0.86089841  0.62517937    -0.75000
O3993       O  0.66070336  0.90727854  0.60442360    -0.75000
O3994       O  0.60859248  0.90445253  0.66268920    -0.75100
O3995       O  0.58003957  0.91770359  0.63513504    -0.75000
O3996       O  0.63458386  0.92183280  0.57527206    -0.75000
O3997       O  0.57767000  0.87605487  0.59800506    -0.74900
O3998       O  0.63468883  0.96433668  0.61027568    -0.75000
Ni3999     Ni  0.63552826  0.90600895  0.63395498     1.25400
Ni4000     Ni  0.60558261  0.92026434  0.60374855     1.25400
C4001       C  0.65888676  0.97382396  0.62585279     0.87300
C4002       C  0.58226506  0.85419718  0.60800686     0.87200
C4003       C  0.65784409  0.91654727  0.58104828     0.87200
C4004       C  0.58530651  0.90970804  0.65869981     0.87400
O4005       O  0.61428705  0.61977503  0.55551786    -0.74900
O4006       O  0.58085637  0.52752669  0.54180822    -0.75000
O4007       O  0.62087029  0.57108915  0.57933429    -0.75000
O4008       O  0.57155603  0.57388463  0.52105082    -0.75100
O4009       O  0.61224882  0.58849471  0.99191999    -0.75000
O4010       O  0.66268526  0.58437237  0.55179618    -0.75000
O4011       O  0.62339512  0.54272765  0.51464416    -0.74900
O4012       O  0.65466073  0.63099110  0.52694298    -0.75000
Ni4013     Ni  0.59547676  0.57262830  0.55059057     1.25400
Ni4014     Ni  0.63969283  0.58692910  0.52040279     1.25400
C4015       C  0.63994077  0.64045608  0.54251036     0.87300
C4016       C  0.59694109  0.52084993  0.52463843     0.87200
C4017       C  0.64942234  0.57636760  0.57535728     0.87200
C4018       C  0.58369275  0.58318606  0.49768679     0.87400
O4019       O  0.65250153  0.69619869  0.53485094    -0.74900
O4020       O  0.71133071  0.78846024  0.54854008    -0.75000
O4021       O  0.70777757  0.74489994  0.51103498    -0.75000
O4022       O  0.65566956  0.74208555  0.56929829    -0.75100
O4023       O  0.68178661  0.72753079  0.59845200    -0.75000
O4024       O  0.73632753  0.73164718  0.53859144    -0.75000
O4025       O  0.73870219  0.77330248  0.57571677    -0.74900
O4026       O  0.68167559  0.68502055  0.56345244    -0.75000
Ni4027     Ni  0.68084350  0.74334957  0.53976764     1.25400
Ni4028     Ni  0.71078595  0.72909304  0.56997662     1.25400
C4029       C  0.65747964  0.67553443  0.54787472     0.87300
C4030       C  0.73410982  0.79516157  0.56571214     0.87200
C4031       C  0.73106266  0.73964187  0.51502475     0.87200
C4032       C  0.65852778  0.73281789  0.59267408     0.87400
loop_ 
_geom_bond_atom_site_label_1 
_geom_bond_atom_site_label_2 
_geom_bond_distance 
_geom_bond_site_symmetry_2 
_ccdc_geom_bond_type 
O1           Ni9   1.978       .  S
O1           C11   1.296       .  A
O2           Ni9   1.952       .  S
O2           C12   1.288       .  A
O3           Ni9   1.894       .  S
O3           C13   1.271       .  A
O4           Ni9   1.874       .  S
O4         C1022   1.270       .  A
O5          Ni10   1.951       .  S
O5         C1022   1.288       .  A
O6          Ni10   1.941       .  S
O6           C13   1.290       .  A
O7          Ni10   1.870       .  S
O7           C12   1.269       .  A
O8          Ni10   1.881       .  S
O8           C11   1.269       .  A
Ni9         Ni10   2.390       .  S
C11        C1033   1.474       .  S
C12         C279   1.449       .  S
C13         C140   1.468       .  S
C14        O1012   1.270       .  A
C14        O1013   1.288       .  A
C14         C404   1.449   1_565  S
O15         Ni23   1.978       .  S
O15          C25   1.296       .  A
O16         Ni23   1.952       .  S
O16          C26   1.288       .  A
O17         Ni23   1.894       .  S
O17          C27   1.271       .  A
O18         Ni23   1.874       .  S
O18          C28   1.270       .  A
O19         Ni24   1.951       .  S
O19          C28   1.288       .  A
O20       Ni1032   1.941       .  S
O20        C1035   1.290       .  A
O21         Ni24   1.870       .  S
O21          C26   1.269       .  A
O22         Ni24   1.881   1_565  S
O22          C25   1.269   1_565  A
Ni23        Ni24   2.390       .  S
Ni24       O1028   1.941   1_545  S
C25        C1019   1.474   1_545  S
C26         C461   1.449       .  S
C27        O1028   1.290   1_545  A
C27        C1092   1.468   1_545  S
C28         C208   1.449       .  S
O29       Ni2053   1.978       .  S
O29          C39   1.296       .  A
O30         Ni37   1.952       .  S
O30          C40   1.288       .  A
O31       Ni2053   1.874       .  S
O31         C545   1.270       .  A
O32         Ni37   1.894       .  S
O32          C42   1.271       .  A
O33         Ni38   1.941       .  S
O33          C42   1.290       .  A
O34        Ni542   1.951   1_554  S
O34        C2057   1.288   1_455  A
O35         Ni38   1.870       .  S
O35          C40   1.269       .  A
O36         Ni38   1.881       .  S
O36        C2055   1.269   1_455  A
Ni37       O2045   1.978   1_455  S
Ni37       O2047   1.874   1_455  S
Ni37        Ni38   2.390       .  S
Ni38        O538   1.951       .  S
C39        O2052   1.269       .  A
C39          C53   1.474       .  S
C40         C994   1.449       .  S
C41         O535   1.270   1_554  A
C41        O2050   1.288       .  A
C41         C194   1.449       .  S
C42         C111   1.468       .  S
O43         Ni51   1.978       .  S
O43          C53   1.296       .  A
O44         Ni51   1.952       .  S
O44          C54   1.288       .  A
O45         Ni51   1.874       .  S
O45          C55   1.270       .  A
O46         Ni51   1.894       .  S
O46          C56   1.271       .  A
O47         Ni52   1.941       .  S
O47          C56   1.290       .  A
O48         Ni52   1.951       .  S
O48          C55   1.288       .  A
O49         Ni52   1.870       .  S
O49          C54   1.269       .  A
O50         Ni52   1.881       .  S
O50          C53   1.269       .  A
Ni51        Ni52   2.390       .  S
C54         C294   1.449       .  S
C55         C376   1.449       .  S
C56        C2673   1.468       .  S
O57       Ni1073   1.978       .  S
O57          C67   1.296       .  A
O58         Ni65   1.952       .  S
O58          C68   1.288       .  A
O59       Ni1073   1.874       .  S
O59          C69   1.270       .  A
O60         Ni65   1.894       .  S
O60          C70   1.271       .  A
O61         Ni66   1.941       .  S
O61          C70   1.290       .  A
O62         Ni66   1.951       .  S
O62        C1077   1.288   1_545  A
O63         Ni66   1.870       .  S
O63          C68   1.269       .  A
O64         Ni66   1.881       .  S
O64        C1075   1.269   1_545  A
Ni65       O1065   1.978   1_545  S
Ni65       O1067   1.874   1_545  S
Ni65        Ni66   2.390       .  S
C67        O1072   1.269       .  A
C67          C81   1.474       .  S
C68         C238   1.449       .  S
C69        O1070   1.288       .  A
C69         C446   1.449       .  S
C70          C97   1.468       .  S
O71         Ni79   1.978       .  S
O71          C81   1.296       .  A
O72         Ni79   1.952       .  S
O72          C82   1.288       .  A
O73         Ni79   1.874       .  S
O73          C83   1.270       .  A
O74         Ni79   1.894       .  S
O74          C84   1.271       .  A
O75         Ni80   1.941       .  S
O75          C84   1.290       .  A
O76         Ni80   1.951       .  S
O76          C83   1.288       .  A
O77         Ni80   1.870       .  S
O77          C82   1.269       .  A
O78         Ni80   1.881       .  S
O78          C81   1.269       .  A
Ni79        Ni80   2.390       .  S
C82         C392   1.449       .  S
C83         C306   1.449       .  S
C84        C1035   1.468       .  S
O85         Ni93   1.978       .  S
O85          C95   1.296       .  A
O86         Ni93   1.952       .  S
O86          C96   1.288       .  A
O87         Ni93   1.894       .  S
O87          C97   1.271       .  A
O88         Ni93   1.874       .  S
O88          C98   1.270       .  A
O89         Ni94   1.951       .  S
O89          C98   1.288       .  A
O90         Ni94   1.941       .  S
O90          C97   1.290       .  A
O91         Ni94   1.870       .  S
O91          C96   1.269       .  A
O92         Ni94   1.881       .  S
O92          C95   1.269       .  A
Ni93        Ni94   2.390       .  S
C95         C109   1.474       .  S
C96         C321   1.449       .  S
C98         C348   1.449       .  S
O99        Ni107   1.978       .  S
O99         C109   1.296       .  A
O100       Ni107   1.952       .  S
O100        C110   1.288       .  A
O101       Ni107   1.894       .  S
O101        C111   1.271       .  A
O102       Ni107   1.874       .  S
O102        C112   1.270       .  A
O103       Ni108   1.951       .  S
O103        C112   1.288       .  A
O104       Ni108   1.941       .  S
O104        C111   1.290       .  A
O105       Ni108   1.870       .  S
O105        C110   1.269       .  A
O106       Ni108   1.881       .  S
O106        C109   1.269       .  A
Ni107      Ni108   2.390       .  S
C110        C419   1.449       .  S
C112        C264   1.449       .  S
O113       Ni121   1.978       .  S
O113        C123   1.296       .  A
O114       Ni121   1.952       .  S
O114        C124   1.288       .  A
O115       Ni121   1.874       .  S
O115        C125   1.270       .  A
O116       Ni121   1.894       .  S
O116        C126   1.271       .  A
O117       Ni122   1.941       .  S
O117        C126   1.290       .  A
O118       Ni122   1.951       .  S
O118        C125   1.288       .  A
O119       Ni122   1.870       .  S
O119        C124   1.269       .  A
O120       Ni122   1.881       .  S
O120        C123   1.269       .  A
Ni121      Ni122   2.390       .  S
C123        C137   1.474       .  S
C124        C434   1.449       .  S
C125        C250   1.449       .  S
C126        C167   1.468       .  S
O127       Ni135   1.978       .  S
O127        C137   1.296       .  A
O128       Ni135   1.952       .  S
O128        C138   1.288       .  A
O129       Ni135   1.874       .  S
O129        C139   1.270       .  A
O130       Ni135   1.894       .  S
O130        C140   1.271       .  A
O131       Ni136   1.941       .  S
O131        C140   1.290       .  A
O132       Ni136   1.951       .  S
O132        C139   1.288       .  A
O133       Ni136   1.870       .  S
O133        C138   1.269       .  A
O134       Ni136   1.881       .  S
O134        C137   1.269       .  A
Ni135      Ni136   2.390       .  S
C138        C182   1.449       .  S
C139        C502   1.449       .  S
O141       Ni149   1.978       .  S
O141        C151   1.296       .  A
O142       Ni149   1.952       .  S
O142        C152   1.288       .  A
O143       Ni149   1.894       .  S
O143        C153   1.271       .  A
O144       Ni149   1.874       .  S
O144        C154   1.270       .  A
O145       Ni150   1.951       .  S
O145        C154   1.288       .  A
O146      Ni2166   1.941       .  S
O146       C2169   1.290       .  A
O147       Ni150   1.870       .  S
O147        C152   1.269       .  A
O148       Ni150   1.881   1_655  S
O148        C151   1.269   1_655  A
Ni149      Ni150   2.390       .  S
Ni150      O2162   1.941   1_455  S
C151       C2181   1.474   1_455  S
C152        C223   1.449       .  S
C153       O2162   1.290   1_455  A
C153       C2576   1.468   1_454  S
C154        C474   1.449       .  S
O155       Ni163   1.978       .  S
O155        C165   1.296       .  A
O156       Ni163   1.952       .  S
O156        C166   1.288       .  A
O157       Ni163   1.894       .  S
O157        C167   1.271       .  A
O158       Ni163   1.874       .  S
O158       C2184   1.270   1_554  A
O159       Ni668   1.951       .  S
O159       C2688   1.288       .  A
O160       Ni164   1.941       .  S
O160        C167   1.290       .  A
O161       Ni164   1.870       .  S
O161        C166   1.269       .  A
O162       Ni164   1.881       .  S
O162        C165   1.269       .  A
Ni163      Ni164   2.390       .  S
Ni164       O663   1.951   1_554  S
C165       C2167   1.474       .  S
C166        C363   1.449       .  S
C168       O2174   1.270   1_556  A
C168       O2679   1.288       .  A
C168        C838   1.449   1_655  S
O169       Ni177   1.978       .  S
O169        C179   1.296       .  A
O170       Ni177   1.952       .  S
O170        C180   1.288       .  A
O171       Ni177   1.894       .  S
O171        C181   1.271       .  A
O172       Ni177   1.874       .  S
O172        C182   1.270       .  A
O173       Ni178   1.951       .  S
O173        C182   1.288       .  A
O174       Ni178   1.941       .  S
O174        C181   1.290       .  A
O175       Ni178   1.870       .  S
O175        C180   1.269       .  A
O176       Ni178   1.881       .  S
O176        C179   1.269       .  A
Ni177      Ni178   2.390       .  S
C179        C193   1.474       .  S
C180        C475   1.449       .  S
C181       C1834   1.468   1_554  S
O183      Ni1199   1.978       .  S
O183        C193   1.296       .  A
O184       Ni191   1.952       .  S
O184        C194   1.288       .  A
O185       Ni191   1.894       .  S
O185        C195   1.271       .  A
O186      Ni1199   1.874       .  S
O186        C196   1.270   1_554  A
O187       Ni696   1.951       .  S
O187       C1708   1.288   1_545  A
O188       Ni192   1.941       .  S
O188        C195   1.290       .  A
O189       Ni192   1.870       .  S
O189        C194   1.269       .  A
O190       Ni192   1.881       .  S
O190       C1201   1.269   1_545  A
Ni191      O1191   1.978   1_545  S
Ni191      O1194   1.874   1_545  S
Ni191      Ni192   2.390       .  S
Ni192       O691   1.951   1_554  S
C193       O1198   1.269       .  A
C195        C210   1.468       .  S
C196       O1699   1.288       .  A
C196        C866   1.449       .  S
O197       Ni205   1.978       .  S
O197        C207   1.296       .  A
O198       Ni205   1.952       .  S
O198        C208   1.288       .  A
O199       Ni205   1.874       .  S
O199        C209   1.270       .  A
O200       Ni205   1.894       .  S
O200        C210   1.271       .  A
O201       Ni206   1.941       .  S
O201        C210   1.290       .  A
O202       Ni206   1.951       .  S
O202        C209   1.288       .  A
O203       Ni206   1.870       .  S
O203        C208   1.269       .  A
O204       Ni206   1.881       .  S
O204        C207   1.269       .  A
Ni205      Ni206   2.390       .  S
C207       C2237   1.474       .  S
C209        C432   1.449       .  S
O211       Ni219   1.978       .  S
O211        C221   1.296       .  A
O212       Ni219   1.952       .  S
O212        C222   1.288       .  A
O213       Ni219   1.874       .  S
O213        C223   1.270       .  A
O214       Ni219   1.894       .  S
O214        C224   1.271       .  A
O215       Ni220   1.941       .  S
O215        C224   1.290       .  A
O216       Ni220   1.951       .  S
O216        C223   1.288       .  A
O217       Ni220   1.870       .  S
O217        C222   1.269       .  A
O218       Ni220   1.881       .  S
O218        C221   1.269       .  A
Ni219      Ni220   2.390       .  S
C221       C2223   1.474   1_455  S
C222        C504   1.449       .  S
C224        C237   1.468       .  S
O225       Ni233   1.978       .  S
O225        C235   1.296       .  A
O226       Ni233   1.952       .  S
O226        C236   1.288       .  A
O227       Ni233   1.894       .  S
O227        C237   1.271       .  A
O228       Ni233   1.874       .  S
O228        C238   1.270       .  A
O229       Ni234   1.951       .  S
O229        C238   1.288       .  A
O230       Ni234   1.941       .  S
O230        C237   1.290       .  A
O231       Ni234   1.870       .  S
O231        C236   1.269       .  A
O232       Ni234   1.881       .  S
O232        C235   1.269       .  A
Ni233      Ni234   2.390       .  S
C235        C249   1.474       .  S
C236        C405   1.449   1_455  S
O239       Ni247   1.978       .  S
O239        C249   1.296       .  A
O240       Ni247   1.952       .  S
O240        C250   1.288       .  A
O241       Ni247   1.894       .  S
O241        C251   1.271       .  A
O242       Ni247   1.874       .  S
O242        C252   1.270       .  A
O243       Ni248   1.951       .  S
O243        C252   1.288       .  A
O244       Ni248   1.941       .  S
O244        C251   1.290       .  A
O245       Ni248   1.870       .  S
O245        C250   1.269       .  A
O246       Ni248   1.881       .  S
O246        C249   1.269       .  A
Ni247      Ni248   2.390       .  S
C251        C266   1.468       .  S
C252        C460   1.449       .  S
O253       Ni261   1.978       .  S
O253        C263   1.296       .  A
O254       Ni261   1.952       .  S
O254        C264   1.288       .  A
O255       Ni261   1.874       .  S
O255        C265   1.270       .  A
O256       Ni261   1.894       .  S
O256        C266   1.271       .  A
O257       Ni262   1.941       .  S
O257        C266   1.290       .  A
O258       Ni262   1.951       .  S
O258        C265   1.288       .  A
O259       Ni262   1.870       .  S
O259        C264   1.269       .  A
O260       Ni262   1.881       .  S
O260        C263   1.269       .  A
Ni261      Ni262   2.390       .  S
C263        C277   1.474       .  S
C265        C390   1.449       .  S
O267       Ni275   1.978       .  S
O267        C277   1.296       .  A
O268       Ni275   1.952       .  S
O268        C278   1.288       .  A
O269       Ni275   1.874       .  S
O269        C279   1.270       .  A
O270       Ni275   1.894       .  S
O270        C280   1.271       .  A
O271       Ni276   1.941       .  S
O271        C280   1.290       .  A
O272       Ni276   1.951       .  S
O272        C279   1.288       .  A
O273       Ni276   1.870       .  S
O273        C278   1.269       .  A
O274       Ni276   1.881       .  S
O274        C277   1.269       .  A
Ni275      Ni276   2.390       .  S
C278        C448   1.449       .  S
C280        C293   1.468       .  S
O281       Ni289   1.978       .  S
O281        C291   1.296       .  A
O282       Ni289   1.952       .  S
O282        C292   1.288       .  A
O283       Ni289   1.894       .  S
O283        C293   1.271       .  A
O284       Ni289   1.874       .  S
O284        C294   1.270       .  A
O285       Ni290   1.951       .  S
O285        C294   1.288       .  A
O286       Ni290   1.941       .  S
O286        C293   1.290       .  A
O287       Ni290   1.870       .  S
O287        C292   1.269       .  A
O288       Ni290   1.881       .  S
O288        C291   1.269       .  A
Ni289      Ni290   2.390       .  S
C291       C2321   1.474       .  S
C292        C349   1.449       .  S
O295       Ni303   1.978       .  S
O295        C305   1.296       .  A
O296       Ni303   1.952       .  S
O296        C306   1.288       .  A
O297       Ni303   1.894       .  S
O297        C307   1.271       .  A
O298       Ni303   1.874       .  S
O298        C308   1.270       .  A
O299       Ni304   1.951       .  S
O299        C308   1.288       .  A
O300       Ni304   1.941       .  S
O300        C307   1.290       .  A
O301       Ni304   1.870       .  S
O301        C306   1.269       .  A
O302       Ni304   1.881       .  S
O302        C305   1.269       .  A
Ni303      Ni304   2.390       .  S
C305       C2307   1.474   1_455  S
C307        C336   1.468       .  S
C308        C418   1.449       .  S
O309       Ni317   1.978       .  S
O309        C319   1.296       .  A
O310       Ni317   1.952       .  S
O310        C320   1.288       .  A
O311       Ni317   1.874       .  S
O311        C321   1.270       .  A
O312       Ni317   1.894       .  S
O312        C322   1.271       .  A
O313      Ni1326   1.941       .  S
O313       C1330   1.290       .  A
O314       Ni318   1.951       .  S
O314        C321   1.288       .  A
O315       Ni318   1.870       .  S
O315        C320   1.269       .  A
O316       Ni318   1.881   1_565  S
O316        C319   1.269   1_565  A
Ni317      Ni318   2.390       .  S
Ni318      O1321   1.941   1_545  S
C319       C1341   1.474   1_545  S
C320        C378   1.449       .  S
C322       O1321   1.290   1_545  A
C322       C1693   1.468   1_545  S
O323       Ni331   1.978       .  S
O323        C333   1.296       .  A
O324       Ni331   1.952       .  S
O324        C334   1.288       .  A
O325       Ni331   1.874       .  S
O325       C1847   1.270       .  A
O326       Ni331   1.894       .  S
O326        C336   1.271       .  A
O327       Ni332   1.941       .  S
O327        C336   1.290       .  A
O328       Ni836   1.951   1_554  S
O328       C1343   1.288       .  A
O329       Ni332   1.870       .  S
O329        C334   1.269       .  A
O330       Ni332   1.881       .  S
O330        C333   1.269       .  A
Ni331      Ni332   2.390       .  S
Ni332       O832   1.951       .  S
C333       C1327   1.474       .  S
C334        C672   1.449   1_455  S
C335       O1837   1.270   1_554  A
C335       O1336   1.288       .  A
C335        C488   1.449   1_565  S
O337       Ni345   1.978       .  S
O337        C347   1.296       .  A
O338       Ni345   1.952       .  S
O338        C348   1.288       .  A
O339       Ni345   1.874       .  S
O339        C349   1.270       .  A
O340       Ni345   1.894       .  S
O340        C350   1.271       .  A
O341       Ni346   1.941       .  S
O341        C350   1.290       .  A
O342       Ni346   1.951       .  S
O342        C349   1.288       .  A
O343       Ni346   1.870       .  S
O343        C348   1.269       .  A
O344       Ni346   1.881       .  S
O344        C347   1.269       .  A
Ni345      Ni346   2.390       .  S
C347        C361   1.474       .  S
C350       C1007   1.468       .  S
O351       Ni359   1.978       .  S
O351        C361   1.296       .  A
O352       Ni359   1.952       .  S
O352        C362   1.288       .  A
O353       Ni359   1.874       .  S
O353        C867   1.270       .  A
O354       Ni359   1.894       .  S
O354        C364   1.271       .  A
O355       Ni360   1.941       .  S
O355        C364   1.290       .  A
O356       Ni864   1.951   1_554  S
O356        C363   1.288       .  A
O357       Ni360   1.870       .  S
O357        C362   1.269       .  A
O358       Ni360   1.881       .  S
O358        C361   1.269       .  A
Ni359      Ni360   2.390       .  S
Ni360       O860   1.951       .  S
C362        C700   1.449       .  S
C363        O857   1.270   1_554  A
C364        C391   1.468       .  S
O365       Ni373   1.978       .  S
O365        C375   1.296       .  A
O366       Ni373   1.952       .  S
O366        C376   1.288       .  A
O367       Ni373   1.894       .  S
O367        C377   1.271       .  A
O368       Ni373   1.874       .  S
O368        C378   1.270       .  A
O369       Ni374   1.951       .  S
O369        C378   1.288       .  A
O370       Ni374   1.941       .  S
O370        C377   1.290       .  A
O371       Ni374   1.870       .  S
O371        C376   1.269       .  A
O372       Ni374   1.881       .  S
O372        C375   1.269       .  A
Ni373      Ni374   2.390       .  S
C375       C1397   1.474   1_545  S
C377        C406   1.468       .  S
O379       Ni387   1.978       .  S
O379        C389   1.296       .  A
O380       Ni387   1.952       .  S
O380        C390   1.288       .  A
O381       Ni387   1.894       .  S
O381        C391   1.271       .  A
O382       Ni387   1.874       .  S
O382        C392   1.270       .  A
O383       Ni388   1.951       .  S
O383        C392   1.288       .  A
O384       Ni388   1.941       .  S
O384        C391   1.290       .  A
O385       Ni388   1.870       .  S
O385        C390   1.269       .  A
O386       Ni388   1.881       .  S
O386        C389   1.269       .  A
Ni387      Ni388   2.390       .  S
C389       C1383   1.474       .  S
O393       Ni401   1.978       .  S
O393        C403   1.296       .  A
O394       Ni401   1.952       .  S
O394        C404   1.288       .  A
O395       Ni401   1.874       .  S
O395       C2421   1.270       .  A
O396       Ni401   1.894       .  S
O396        C406   1.271       .  A
O397       Ni402   1.941       .  S
O397        C406   1.290       .  A
O398       Ni402   1.951       .  S
O398       C2421   1.288       .  A
O399       Ni402   1.870       .  S
O399        C404   1.269       .  A
O400       Ni402   1.881       .  S
O400        C403   1.269       .  A
Ni401      Ni402   2.390       .  S
C403       C2433   1.474       .  S
C405       O2411   1.270       .  A
C405       O2414   1.288       .  A
O407       Ni415   1.978       .  S
O407        C417   1.296       .  A
O408       Ni415   1.952       .  S
O408        C418   1.288       .  A
O409       Ni415   1.874       .  S
O409        C419   1.270       .  A
O410       Ni415   1.894       .  S
O410        C420   1.271       .  A
O411      Ni2432   1.941       .  S
O411       C2436   1.290       .  A
O412       Ni416   1.951       .  S
O412        C419   1.288       .  A
O413       Ni416   1.870       .  S
O413        C418   1.269       .  A
O414       Ni416   1.881   1_655  S
O414        C417   1.269   1_655  A
Ni415      Ni416   2.390       .  S
Ni416      O2427   1.941   1_455  S
C417       C2419   1.474   1_455  S
C420       O2427   1.290   1_455  A
C420       C2449   1.468   1_455  S
O421       Ni429   1.978       .  S
O421        C431   1.296       .  A
O422       Ni429   1.952       .  S
O422        C432   1.288       .  A
O423       Ni429   1.894       .  S
O423        C433   1.271       .  A
O424       Ni429   1.874       .  S
O424        C434   1.270       .  A
O425       Ni430   1.951       .  S
O425        C434   1.288       .  A
O426       Ni430   1.941       .  S
O426        C433   1.290       .  A
O427       Ni430   1.870       .  S
O427        C432   1.269       .  A
O428       Ni430   1.881       .  S
O428        C431   1.269       .  A
Ni429      Ni430   2.390       .  S
C431        C445   1.474       .  S
C433       C2436   1.468       .  S
O435      Ni2459   1.978       .  S
O435        C445   1.296       .  A
O436       Ni443   1.952       .  S
O436        C446   1.288       .  A
O437       Ni443   1.894       .  S
O437        C447   1.271       .  A
O438      Ni2459   1.874       .  S
O438        C448   1.270       .  A
O439       Ni444   1.951       .  S
O439       C2464   1.288   1_455  A
O440       Ni444   1.941       .  S
O440        C447   1.290       .  A
O441       Ni444   1.870       .  S
O441        C446   1.269       .  A
O442       Ni444   1.881       .  S
O442       C2461   1.269   1_455  A
Ni443      O2451   1.978   1_455  S
Ni443      O2454   1.874   1_455  S
Ni443      Ni444   2.390       .  S
C445       O2458   1.269       .  A
C447        C476   1.468       .  S
C448       O2455   1.288       .  A
O449       Ni457   1.978       .  S
O449        C459   1.296       .  A
O450       Ni457   1.952       .  S
O450        C460   1.288       .  A
O451       Ni457   1.874       .  S
O451        C461   1.270       .  A
O452       Ni457   1.894       .  S
O452        C462   1.271       .  A
O453       Ni458   1.941       .  S
O453        C462   1.290       .  A
O454       Ni458   1.951       .  S
O454        C461   1.288       .  A
O455       Ni458   1.870       .  S
O455        C460   1.269       .  A
O456       Ni458   1.881       .  S
O456        C459   1.269       .  A
Ni457      Ni458   2.390       .  S
C459       C1481   1.474   1_545  S
C462        C489   1.468       .  S
O463       Ni471   1.978       .  S
O463        C473   1.296       .  A
O464       Ni471   1.952       .  S
O464        C474   1.288       .  A
O465       Ni471   1.874       .  S
O465        C475   1.270       .  A
O466       Ni471   1.894       .  S
O466        C476   1.271       .  A
O467       Ni472   1.941       .  S
O467        C476   1.290       .  A
O468       Ni472   1.951       .  S
O468        C475   1.288       .  A
O469       Ni472   1.870       .  S
O469        C474   1.269       .  A
O470       Ni472   1.881       .  S
O470        C473   1.269       .  A
Ni471      Ni472   2.390       .  S
C473       C1467   1.474       .  S
O477       Ni485   1.978       .  S
O477        C487   1.296       .  A
O478       Ni485   1.952       .  S
O478        C488   1.288       .  A
O479       Ni485   1.894       .  S
O479        C489   1.271       .  A
O480       Ni485   1.874       .  S
O480        C490   1.270   1_554  A
O481       Ni990   1.951       .  S
O481        C994   1.288       .  A
O482       Ni486   1.941       .  S
O482        C489   1.290       .  A
O483       Ni486   1.870       .  S
O483        C488   1.269       .  A
O484       Ni486   1.881       .  S
O484        C487   1.269       .  A
Ni485      Ni486   2.390       .  S
Ni486       O985   1.951   1_554  S
C487        C501   1.474       .  S
C490        O985   1.288       .  A
C490        C544   1.449       .  S
O491       Ni499   1.978       .  S
O491        C501   1.296       .  A
O492       Ni499   1.952       .  S
O492        C502   1.288       .  A
O493       Ni499   1.894       .  S
O493        C503   1.271       .  A
O494       Ni499   1.874       .  S
O494        C504   1.270       .  A
O495       Ni500   1.951       .  S
O495        C504   1.288       .  A
O496       Ni500   1.941       .  S
O496        C503   1.290       .  A
O497       Ni500   1.870       .  S
O497        C502   1.269       .  A
O498       Ni500   1.881       .  S
O498        C501   1.269       .  A
Ni499      Ni500   2.390       .  S
C503        C854   1.468   1_554  S
O505       Ni513   1.978       .  S
O505        C515   1.296       .  A
O506       Ni513   1.952       .  S
O506        C516   1.288       .  A
O507       Ni513   1.894       .  S
O507        C517   1.271       .  A
O508       Ni513   1.874       .  S
O508       C1526   1.270       .  A
O509       Ni514   1.951       .  S
O509       C1526   1.288       .  A
O510       Ni514   1.941       .  S
O510        C517   1.290       .  A
O511       Ni514   1.870       .  S
O511        C516   1.269       .  A
O512       Ni514   1.881       .  S
O512        C515   1.269       .  A
Ni513      Ni514   2.390       .  S
C515       C1537   1.474       .  S
C516        C783   1.449       .  S
C517        C644   1.468       .  S
C518       O1516   1.270       .  A
C518       O1517   1.288       .  A
C518        C908   1.449   1_565  S
O519       Ni527   1.978       .  S
O519        C529   1.296       .  A
O520       Ni527   1.952       .  S
O520        C530   1.288       .  A
O521       Ni527   1.894       .  S
O521        C531   1.271       .  A
O522       Ni527   1.874       .  S
O522        C532   1.270       .  A
O523       Ni528   1.951       .  S
O523        C532   1.288       .  A
O524      Ni1536   1.941       .  S
O524       C1539   1.290       .  A
O525       Ni528   1.870       .  S
O525        C530   1.269       .  A
O526       Ni528   1.881   1_565  S
O526        C529   1.269   1_565  A
Ni527      Ni528   2.390       .  S
Ni528      O1532   1.941   1_545  S
C529       C1523   1.474   1_545  S
C530        C965   1.449       .  S
C531       O1532   1.290   1_545  A
C531       C1596   1.468   1_545  S
C532        C712   1.449       .  S
O533      Ni2557   1.978       .  S
O533        C543   1.296       .  A
O534       Ni541   1.952       .  S
O534        C544   1.288       .  A
O535      Ni2557   1.874       .  S
O536       Ni541   1.894       .  S
O536        C546   1.271       .  A
O537       Ni542   1.941       .  S
O537        C546   1.290       .  A
O538       C2561   1.288   1_455  A
O539       Ni542   1.870       .  S
O539        C544   1.269       .  A
O540       Ni542   1.881       .  S
O540       C2559   1.269   1_455  A
Ni541      O2549   1.978   1_455  S
Ni541      O2551   1.874   1_455  S
Ni541      Ni542   2.390       .  S
C543       O2556   1.269       .  A
C543        C557   1.474       .  S
C545       O2554   1.288       .  A
C545        C698   1.449       .  S
C546        C615   1.468       .  S
O547       Ni555   1.978       .  S
O547        C557   1.296       .  A
O548       Ni555   1.952       .  S
O548        C558   1.288       .  A
O549       Ni555   1.874       .  S
O549        C559   1.270       .  A
O550       Ni555   1.894       .  S
O550        C560   1.271       .  A
O551       Ni556   1.941       .  S
O551        C560   1.290       .  A
O552       Ni556   1.951       .  S
O552        C559   1.288       .  A
O553       Ni556   1.870       .  S
O553        C558   1.269       .  A
O554       Ni556   1.881       .  S
O554        C557   1.269       .  A
Ni555      Ni556   2.390       .  S
C558        C798   1.449       .  S
C559        C880   1.449       .  S
C560       C2169   1.468   1_556  S
O561      Ni1577   1.978       .  S
O561        C571   1.296       .  A
O562       Ni569   1.952       .  S
O562        C572   1.288       .  A
O563      Ni1577   1.874       .  S
O563        C573   1.270       .  A
O564       Ni569   1.894       .  S
O564        C574   1.271       .  A
O565       Ni570   1.941       .  S
O565        C574   1.290       .  A
O566       Ni570   1.951       .  S
O566       C1581   1.288   1_545  A
O567       Ni570   1.870       .  S
O567        C572   1.269       .  A
O568       Ni570   1.881       .  S
O568       C1579   1.269   1_545  A
Ni569      O1569   1.978   1_545  S
Ni569      O1571   1.874   1_545  S
Ni569      Ni570   2.390       .  S
C571       O1576   1.269       .  A
C571        C585   1.474       .  S
C572        C742   1.449       .  S
C573       O1574   1.288       .  A
C573        C950   1.449       .  S
C574        C601   1.468       .  S
O575       Ni583   1.978       .  S
O575        C585   1.296       .  A
O576       Ni583   1.952       .  S
O576        C586   1.288       .  A
O577       Ni583   1.874       .  S
O577        C587   1.270       .  A
O578       Ni583   1.894       .  S
O578        C588   1.271       .  A
O579       Ni584   1.941       .  S
O579        C588   1.290       .  A
O580       Ni584   1.951       .  S
O580        C587   1.288       .  A
O581       Ni584   1.870       .  S
O581        C586   1.269       .  A
O582       Ni584   1.881       .  S
O582        C585   1.269       .  A
Ni583      Ni584   2.390       .  S
C586        C896   1.449       .  S
C587        C810   1.449       .  S
C588       C1539   1.468       .  S
O589       Ni597   1.978       .  S
O589        C599   1.296       .  A
O590       Ni597   1.952       .  S
O590        C600   1.288       .  A
O591       Ni597   1.894       .  S
O591        C601   1.271       .  A
O592       Ni597   1.874       .  S
O592        C602   1.270       .  A
O593       Ni598   1.951       .  S
O593        C602   1.288       .  A
O594       Ni598   1.941       .  S
O594        C601   1.290       .  A
O595       Ni598   1.870       .  S
O595        C600   1.269       .  A
O596       Ni598   1.881       .  S
O596        C599   1.269       .  A
Ni597      Ni598   2.390       .  S
C599        C613   1.474       .  S
C600        C825   1.449       .  S
C602        C852   1.449       .  S
O603       Ni611   1.978       .  S
O603        C613   1.296       .  A
O604       Ni611   1.952       .  S
O604        C614   1.288       .  A
O605       Ni611   1.894       .  S
O605        C615   1.271       .  A
O606       Ni611   1.874       .  S
O606        C616   1.270       .  A
O607       Ni612   1.951       .  S
O607        C616   1.288       .  A
O608       Ni612   1.941       .  S
O608        C615   1.290       .  A
O609       Ni612   1.870       .  S
O609        C614   1.269       .  A
O610       Ni612   1.881       .  S
O610        C613   1.269       .  A
Ni611      Ni612   2.390       .  S
C614        C923   1.449       .  S
C616        C768   1.449       .  S
O617       Ni625   1.978       .  S
O617        C627   1.296       .  A
O618       Ni625   1.952       .  S
O618        C628   1.288       .  A
O619       Ni625   1.874       .  S
O619        C629   1.270       .  A
O620       Ni625   1.894       .  S
O620        C630   1.271       .  A
O621       Ni626   1.941       .  S
O621        C630   1.290       .  A
O622       Ni626   1.951       .  S
O622        C629   1.288       .  A
O623       Ni626   1.870       .  S
O623        C628   1.269       .  A
O624       Ni626   1.881       .  S
O624        C627   1.269       .  A
Ni625      Ni626   2.390       .  S
C627        C641   1.474       .  S
C628        C938   1.449       .  S
C629        C754   1.449       .  S
C630        C671   1.468       .  S
O631       Ni639   1.978       .  S
O631        C641   1.296       .  A
O632       Ni639   1.952       .  S
O632        C642   1.288       .  A
O633       Ni639   1.874       .  S
O633        C643   1.270       .  A
O634       Ni639   1.894       .  S
O634        C644   1.271       .  A
O635       Ni640   1.941       .  S
O635        C644   1.290       .  A
O636       Ni640   1.951       .  S
O636        C643   1.288       .  A
O637       Ni640   1.870       .  S
O637        C642   1.269       .  A
O638       Ni640   1.881       .  S
O638        C641   1.269       .  A
Ni639      Ni640   2.390       .  S
C642        C686   1.449       .  S
C643       C1006   1.449       .  S
O645       Ni653   1.978       .  S
O645        C655   1.296       .  A
O646       Ni653   1.952       .  S
O646        C656   1.288       .  A
O647       Ni653   1.894       .  S
O647        C657   1.271       .  A
O648       Ni653   1.874       .  S
O648        C658   1.270       .  A
O649       Ni654   1.951       .  S
O649        C658   1.288       .  A
O650      Ni2670   1.941       .  S
O650       C2673   1.290       .  A
O651       Ni654   1.870       .  S
O651        C656   1.269       .  A
O652       Ni654   1.881   1_655  S
O652        C655   1.269   1_655  A
Ni653      Ni654   2.390       .  S
Ni654      O2666   1.941   1_455  S
C655       C2685   1.474   1_455  S
C656        C727   1.449       .  S
C657       O2666   1.290   1_455  A
C657       C2072   1.468   1_455  S
C658        C978   1.449       .  S
O659       Ni667   1.978       .  S
O659        C669   1.296       .  A
O660       Ni667   1.952       .  S
O660        C670   1.288       .  A
O661       Ni667   1.894       .  S
O661        C671   1.271       .  A
O662       Ni667   1.874       .  S
O662       C2688   1.270       .  A
O663       C2184   1.288       .  A
O664       Ni668   1.941       .  S
O664        C671   1.290       .  A
O665       Ni668   1.870       .  S
O665        C670   1.269       .  A
O666       Ni668   1.881       .  S
O666        C669   1.269       .  A
Ni667      Ni668   2.390       .  S
C669       C2671   1.474       .  S
C670        C867   1.449       .  S
C672       O2678   1.270       .  A
C672       O2175   1.288       .  A
O673       Ni681   1.978       .  S
O673        C683   1.296       .  A
O674       Ni681   1.952       .  S
O674        C684   1.288       .  A
O675       Ni681   1.894       .  S
O675        C685   1.271       .  A
O676       Ni681   1.874       .  S
O676        C686   1.270       .  A
O677       Ni682   1.951       .  S
O677        C686   1.288       .  A
O678       Ni682   1.941       .  S
O678        C685   1.290       .  A
O679       Ni682   1.870       .  S
O679        C684   1.269       .  A
O680       Ni682   1.881       .  S
O680        C683   1.269       .  A
Ni681      Ni682   2.390       .  S
C683        C697   1.474       .  S
C684        C979   1.449       .  S
C685       C1330   1.468       .  S
O687      Ni1703   1.978       .  S
O687        C697   1.296       .  A
O688       Ni695   1.952       .  S
O688        C698   1.288       .  A
O689       Ni695   1.894       .  S
O689        C699   1.271       .  A
O690      Ni1703   1.874       .  S
O690        C700   1.270       .  A
O691       C1204   1.288   1_545  A
O692       Ni696   1.941       .  S
O692        C699   1.290       .  A
O693       Ni696   1.870       .  S
O693        C698   1.269       .  A
O694       Ni696   1.881       .  S
O694       C1705   1.269   1_545  A
Ni695      O1695   1.978   1_545  S
Ni695      O1698   1.874   1_545  S
Ni695      Ni696   2.390       .  S
C697       O1702   1.269       .  A
C699        C714   1.468       .  S
C700       O1195   1.288       .  A
O701       Ni709   1.978       .  S
O701        C711   1.296       .  A
O702       Ni709   1.952       .  S
O702        C712   1.288       .  A
O703       Ni709   1.874       .  S
O703        C713   1.270       .  A
O704       Ni709   1.894       .  S
O704        C714   1.271       .  A
O705       Ni710   1.941       .  S
O705        C714   1.290       .  A
O706       Ni710   1.951       .  S
O706        C713   1.288       .  A
O707       Ni710   1.870       .  S
O707        C712   1.269       .  A
O708       Ni710   1.881       .  S
O708        C711   1.269       .  A
Ni709      Ni710   2.390       .  S
C711       C2741   1.474       .  S
C713        C936   1.449       .  S
O715       Ni723   1.978       .  S
O715        C725   1.296       .  A
O716       Ni723   1.952       .  S
O716        C726   1.288       .  A
O717       Ni723   1.874       .  S
O717        C727   1.270       .  A
O718       Ni723   1.894       .  S
O718        C728   1.271       .  A
O719       Ni724   1.941       .  S
O719        C728   1.290       .  A
O720       Ni724   1.951       .  S
O720        C727   1.288       .  A
O721       Ni724   1.870       .  S
O721        C726   1.269       .  A
O722       Ni724   1.881       .  S
O722        C725   1.269       .  A
Ni723      Ni724   2.390       .  S
C725       C2727   1.474   1_455  S
C726       C1008   1.449       .  S
C728        C741   1.468       .  S
O729       Ni737   1.978       .  S
O729        C739   1.296       .  A
O730       Ni737   1.952       .  S
O730        C740   1.288       .  A
O731       Ni737   1.894       .  S
O731        C741   1.271       .  A
O732       Ni737   1.874       .  S
O732        C742   1.270       .  A
O733       Ni738   1.951       .  S
O733        C742   1.288       .  A
O734       Ni738   1.941       .  S
O734        C741   1.290       .  A
O735       Ni738   1.870       .  S
O735        C740   1.269       .  A
O736       Ni738   1.881       .  S
O736        C739   1.269       .  A
Ni737      Ni738   2.390       .  S
C739        C753   1.474       .  S
C740        C909   1.449   1_455  S
O743       Ni751   1.978       .  S
O743        C753   1.296       .  A
O744       Ni751   1.952       .  S
O744        C754   1.288       .  A
O745       Ni751   1.894       .  S
O745        C755   1.271       .  A
O746       Ni751   1.874       .  S
O746        C756   1.270       .  A
O747       Ni752   1.951       .  S
O747        C756   1.288       .  A
O748       Ni752   1.941       .  S
O748        C755   1.290       .  A
O749       Ni752   1.870       .  S
O749        C754   1.269       .  A
O750       Ni752   1.881       .  S
O750        C753   1.269       .  A
Ni751      Ni752   2.390       .  S
C755        C770   1.468       .  S
C756        C964   1.449       .  S
O757       Ni765   1.978       .  S
O757        C767   1.296       .  A
O758       Ni765   1.952       .  S
O758        C768   1.288       .  A
O759       Ni765   1.874       .  S
O759        C769   1.270       .  A
O760       Ni765   1.894       .  S
O760        C770   1.271       .  A
O761       Ni766   1.941       .  S
O761        C770   1.290       .  A
O762       Ni766   1.951       .  S
O762        C769   1.288       .  A
O763       Ni766   1.870       .  S
O763        C768   1.269       .  A
O764       Ni766   1.881       .  S
O764        C767   1.269       .  A
Ni765      Ni766   2.390       .  S
C767        C781   1.474       .  S
C769        C894   1.449       .  S
O771       Ni779   1.978       .  S
O771        C781   1.296       .  A
O772       Ni779   1.952       .  S
O772        C782   1.288       .  A
O773       Ni779   1.874       .  S
O773        C783   1.270       .  A
O774       Ni779   1.894       .  S
O774        C784   1.271       .  A
O775       Ni780   1.941       .  S
O775        C784   1.290       .  A
O776       Ni780   1.951       .  S
O776        C783   1.288       .  A
O777       Ni780   1.870       .  S
O777        C782   1.269       .  A
O778       Ni780   1.881       .  S
O778        C781   1.269       .  A
Ni779      Ni780   2.390       .  S
C782        C952   1.449       .  S
C784        C797   1.468       .  S
O785       Ni793   1.978       .  S
O785        C795   1.296       .  A
O786       Ni793   1.952       .  S
O786        C796   1.288       .  A
O787       Ni793   1.894       .  S
O787        C797   1.271       .  A
O788       Ni793   1.874       .  S
O788        C798   1.270       .  A
O789       Ni794   1.951       .  S
O789        C798   1.288       .  A
O790       Ni794   1.941       .  S
O790        C797   1.290       .  A
O791       Ni794   1.870       .  S
O791        C796   1.269       .  A
O792       Ni794   1.881       .  S
O792        C795   1.269       .  A
Ni793      Ni794   2.390       .  S
C795       C2825   1.474       .  S
C796        C853   1.449       .  S
O799       Ni807   1.978       .  S
O799        C809   1.296       .  A
O800       Ni807   1.952       .  S
O800        C810   1.288       .  A
O801       Ni807   1.894       .  S
O801        C811   1.271       .  A
O802       Ni807   1.874       .  S
O802        C812   1.270       .  A
O803       Ni808   1.951       .  S
O803        C812   1.288       .  A
O804       Ni808   1.941       .  S
O804        C811   1.290       .  A
O805       Ni808   1.870       .  S
O805        C810   1.269       .  A
O806       Ni808   1.881       .  S
O806        C809   1.269       .  A
Ni807      Ni808   2.390       .  S
C809       C2811   1.474   1_455  S
C811        C840   1.468       .  S
C812        C922   1.449       .  S
O813       Ni821   1.978       .  S
O813        C823   1.296       .  A
O814       Ni821   1.952       .  S
O814        C824   1.288       .  A
O815       Ni821   1.874       .  S
O815        C825   1.270       .  A
O816       Ni821   1.894       .  S
O816        C826   1.271       .  A
O817      Ni1830   1.941       .  S
O817       C1834   1.290       .  A
O818       Ni822   1.951       .  S
O818        C825   1.288       .  A
O819       Ni822   1.870       .  S
O819        C824   1.269       .  A
O820       Ni822   1.881   1_565  S
O820        C823   1.269   1_565  A
Ni821      Ni822   2.390       .  S
Ni822      O1825   1.941   1_545  S
C823       C1845   1.474   1_545  S
C824        C882   1.449       .  S
C826       O1825   1.290   1_545  A
C826       C1189   1.468   1_546  S
O827       Ni835   1.978       .  S
O827        C837   1.296       .  A
O828       Ni835   1.952       .  S
O828        C838   1.288       .  A
O829       Ni835   1.874       .  S
O829       C1343   1.270   1_556  A
O830       Ni835   1.894       .  S
O830        C840   1.271       .  A
O831       Ni836   1.941       .  S
O831        C840   1.290       .  A
O832       C1847   1.288       .  A
O833       Ni836   1.870       .  S
O833        C838   1.269       .  A
O834       Ni836   1.881       .  S
O834        C837   1.269       .  A
Ni835      Ni836   2.390       .  S
C837       C1831   1.474       .  S
C839       O1333   1.270       .  A
C839       O1840   1.288       .  A
C839        C992   1.449   1_565  S
O841       Ni849   1.978       .  S
O841        C851   1.296       .  A
O842       Ni849   1.952       .  S
O842        C852   1.288       .  A
O843       Ni849   1.874       .  S
O843        C853   1.270       .  A
O844       Ni849   1.894       .  S
O844        C854   1.271       .  A
O845       Ni850   1.941       .  S
O845        C854   1.290       .  A
O846       Ni850   1.951       .  S
O846        C853   1.288       .  A
O847       Ni850   1.870       .  S
O847        C852   1.269       .  A
O848       Ni850   1.881       .  S
O848        C851   1.269       .  A
Ni849      Ni850   2.390       .  S
C851        C865   1.474       .  S
O855       Ni863   1.978       .  S
O855        C865   1.296       .  A
O856       Ni863   1.952       .  S
O856        C866   1.288       .  A
O857       Ni863   1.874       .  S
O858       Ni863   1.894       .  S
O858        C868   1.271       .  A
O859       Ni864   1.941       .  S
O859        C868   1.290       .  A
O860        C867   1.288       .  A
O861       Ni864   1.870       .  S
O861        C866   1.269       .  A
O862       Ni864   1.881       .  S
O862        C865   1.269       .  A
Ni863      Ni864   2.390       .  S
C868        C895   1.468       .  S
O869       Ni877   1.978       .  S
O869        C879   1.296       .  A
O870       Ni877   1.952       .  S
O870        C880   1.288       .  A
O871       Ni877   1.894       .  S
O871        C881   1.271       .  A
O872       Ni877   1.874       .  S
O872        C882   1.270       .  A
O873       Ni878   1.951       .  S
O873        C882   1.288       .  A
O874       Ni878   1.941       .  S
O874        C881   1.290       .  A
O875       Ni878   1.870       .  S
O875        C880   1.269       .  A
O876       Ni878   1.881       .  S
O876        C879   1.269       .  A
Ni877      Ni878   2.390       .  S
C879       C1901   1.474   1_545  S
C881        C910   1.468       .  S
O883       Ni891   1.978       .  S
O883        C893   1.296       .  A
O884       Ni891   1.952       .  S
O884        C894   1.288       .  A
O885       Ni891   1.894       .  S
O885        C895   1.271       .  A
O886       Ni891   1.874       .  S
O886        C896   1.270       .  A
O887       Ni892   1.951       .  S
O887        C896   1.288       .  A
O888       Ni892   1.941       .  S
O888        C895   1.290       .  A
O889       Ni892   1.870       .  S
O889        C894   1.269       .  A
O890       Ni892   1.881       .  S
O890        C893   1.269       .  A
Ni891      Ni892   2.390       .  S
C893       C1887   1.474       .  S
O897       Ni905   1.978       .  S
O897        C907   1.296       .  A
O898       Ni905   1.952       .  S
O898        C908   1.288       .  A
O899       Ni905   1.874       .  S
O899       C2925   1.270       .  A
O900       Ni905   1.894       .  S
O900        C910   1.271       .  A
O901       Ni906   1.941       .  S
O901        C910   1.290       .  A
O902       Ni906   1.951       .  S
O902       C2925   1.288       .  A
O903       Ni906   1.870       .  S
O903        C908   1.269       .  A
O904       Ni906   1.881       .  S
O904        C907   1.269       .  A
Ni905      Ni906   2.390       .  S
C907       C2937   1.474       .  S
C909       O2915   1.270       .  A
C909       O2918   1.288       .  A
O911       Ni919   1.978       .  S
O911        C921   1.296       .  A
O912       Ni919   1.952       .  S
O912        C922   1.288       .  A
O913       Ni919   1.874       .  S
O913        C923   1.270       .  A
O914       Ni919   1.894       .  S
O914        C924   1.271       .  A
O915      Ni2936   1.941       .  S
O915       C2940   1.290       .  A
O916       Ni920   1.951       .  S
O916        C923   1.288       .  A
O917       Ni920   1.870       .  S
O917        C922   1.269       .  A
O918       Ni920   1.881   1_655  S
O918        C921   1.269   1_655  A
Ni919      Ni920   2.390       .  S
Ni920      O2931   1.941   1_455  S
C921       C2923   1.474   1_455  S
C924       O2931   1.290   1_455  A
C924       C2953   1.468   1_455  S
O925       Ni933   1.978       .  S
O925        C935   1.296       .  A
O926       Ni933   1.952       .  S
O926        C936   1.288       .  A
O927       Ni933   1.894       .  S
O927        C937   1.271       .  A
O928       Ni933   1.874       .  S
O928        C938   1.270       .  A
O929       Ni934   1.951       .  S
O929        C938   1.288       .  A
O930       Ni934   1.941       .  S
O930        C937   1.290       .  A
O931       Ni934   1.870       .  S
O931        C936   1.269       .  A
O932       Ni934   1.881       .  S
O932        C935   1.269       .  A
Ni933      Ni934   2.390       .  S
C935        C949   1.474       .  S
C937       C2940   1.468       .  S
O939      Ni2963   1.978       .  S
O939        C949   1.296       .  A
O940       Ni947   1.952       .  S
O940        C950   1.288       .  A
O941       Ni947   1.894       .  S
O941        C951   1.271       .  A
O942      Ni2963   1.874       .  S
O942        C952   1.270       .  A
O943       Ni948   1.951       .  S
O943       C2968   1.288   1_455  A
O944       Ni948   1.941       .  S
O944        C951   1.290       .  A
O945       Ni948   1.870       .  S
O945        C950   1.269       .  A
O946       Ni948   1.881       .  S
O946       C2965   1.269   1_455  A
Ni947      O2955   1.978   1_455  S
Ni947      O2958   1.874   1_455  S
Ni947      Ni948   2.390       .  S
C949       O2962   1.269       .  A
C951        C980   1.468       .  S
C952       O2959   1.288       .  A
O953       Ni961   1.978       .  S
O953        C963   1.296       .  A
O954       Ni961   1.952       .  S
O954        C964   1.288       .  A
O955       Ni961   1.874       .  S
O955        C965   1.270       .  A
O956       Ni961   1.894       .  S
O956        C966   1.271       .  A
O957       Ni962   1.941       .  S
O957        C966   1.290       .  A
O958       Ni962   1.951       .  S
O958        C965   1.288       .  A
O959       Ni962   1.870       .  S
O959        C964   1.269       .  A
O960       Ni962   1.881       .  S
O960        C963   1.269       .  A
Ni961      Ni962   2.390       .  S
C963       C1985   1.474   1_545  S
C966        C993   1.468       .  S
O967       Ni975   1.978       .  S
O967        C977   1.296       .  A
O968       Ni975   1.952       .  S
O968        C978   1.288       .  A
O969       Ni975   1.874       .  S
O969        C979   1.270       .  A
O970       Ni975   1.894       .  S
O970        C980   1.271       .  A
O971       Ni976   1.941       .  S
O971        C980   1.290       .  A
O972       Ni976   1.951       .  S
O972        C979   1.288       .  A
O973       Ni976   1.870       .  S
O973        C978   1.269       .  A
O974       Ni976   1.881       .  S
O974        C977   1.269       .  A
Ni975      Ni976   2.390       .  S
C977       C1971   1.474       .  S
O981       Ni989   1.978       .  S
O981        C991   1.296       .  A
O982       Ni989   1.952       .  S
O982        C992   1.288       .  A
O983       Ni989   1.894       .  S
O983        C993   1.271       .  A
O984       Ni989   1.874       .  S
O984        C994   1.270       .  A
O986       Ni990   1.941       .  S
O986        C993   1.290       .  A
O987       Ni990   1.870       .  S
O987        C992   1.269       .  A
O988       Ni990   1.881       .  S
O988        C991   1.269       .  A
Ni989      Ni990   2.390       .  S
C991       C1005   1.474       .  S
O995      Ni1003   1.978       .  S
O995       C1005   1.296       .  A
O996      Ni1003   1.952       .  S
O996       C1006   1.288       .  A
O997      Ni1003   1.894       .  S
O997       C1007   1.271       .  A
O998      Ni1003   1.874       .  S
O998       C1008   1.270       .  A
O999      Ni1004   1.951       .  S
O999       C1008   1.288       .  A
O1000     Ni1004   1.941       .  S
O1000      C1007   1.290       .  A
O1001     Ni1004   1.870       .  S
O1001      C1006   1.269       .  A
O1002     Ni1004   1.881       .  S
O1002      C1005   1.269       .  A
Ni1003    Ni1004   2.390       .  S
O1009     Ni1017   1.978       .  S
O1009      C1019   1.296       .  A
O1010     Ni1017   1.952       .  S
O1010      C1020   1.288       .  A
O1011     Ni1017   1.894       .  S
O1011      C1021   1.271       .  A
O1012     Ni1017   1.874       .  S
O1013     Ni1018   1.951       .  S
O1014     Ni1018   1.941       .  S
O1014      C1021   1.290       .  A
O1015     Ni1018   1.870       .  S
O1015      C1020   1.269       .  A
O1016     Ni1018   1.881       .  S
O1016      C1019   1.269       .  A
Ni1017    Ni1018   2.390       .  S
C1020      C1287   1.449       .  S
C1021      C1148   1.468       .  S
C1022      C1412   1.449       .  S
O1023     Ni1031   1.978       .  S
O1023      C1033   1.296       .  A
O1024     Ni1031   1.952       .  S
O1024      C1034   1.288       .  A
O1025     Ni1031   1.894       .  S
O1025      C1035   1.271       .  A
O1026     Ni1031   1.874       .  S
O1026      C1036   1.270       .  A
O1027     Ni1032   1.951       .  S
O1027      C1036   1.288       .  A
O1029     Ni1032   1.870       .  S
O1029      C1034   1.269       .  A
O1030     Ni1032   1.881       .  S
O1030      C1033   1.269       .  A
Ni1031    Ni1032   2.390       .  S
C1034      C1469   1.449       .  S
C1036      C1216   1.449       .  S
O1037     Ni3061   1.978       .  S
O1037      C1047   1.296       .  A
O1038     Ni1045   1.952       .  S
O1038      C1048   1.288       .  A
O1039     Ni3061   1.874       .  S
O1039      C1553   1.270       .  A
O1040     Ni1045   1.894       .  S
O1040      C1050   1.271       .  A
O1041     Ni1046   1.941       .  S
O1041      C1050   1.290       .  A
O1042     Ni1550   1.951   1_554  S
O1042      C3065   1.288   1_455  A
O1043     Ni1046   1.870       .  S
O1043      C1048   1.269       .  A
O1044     Ni1046   1.881       .  S
O1044      C3063   1.269   1_455  A
Ni1045     O3053   1.978   1_455  S
Ni1045     O3055   1.874   1_455  S
Ni1045    Ni1046   2.390       .  S
Ni1046     O1546   1.951       .  S
C1047      O3060   1.269       .  A
C1047      C1061   1.474       .  S
C1048      C2002   1.449       .  S
C1049      O1543   1.270   1_554  A
C1049      O3058   1.288       .  A
C1049      C1202   1.449       .  S
C1050      C1119   1.468       .  S
O1051     Ni1059   1.978       .  S
O1051      C1061   1.296       .  A
O1052     Ni1059   1.952       .  S
O1052      C1062   1.288       .  A
O1053     Ni1059   1.874       .  S
O1053      C1063   1.270       .  A
O1054     Ni1059   1.894       .  S
O1054      C1064   1.271       .  A
O1055     Ni1060   1.941       .  S
O1055      C1064   1.290       .  A
O1056     Ni1060   1.951       .  S
O1056      C1063   1.288       .  A
O1057     Ni1060   1.870       .  S
O1057      C1062   1.269       .  A
O1058     Ni1060   1.881       .  S
O1058      C1061   1.269       .  A
Ni1059    Ni1060   2.390       .  S
C1062      C1302   1.449       .  S
C1063      C1384   1.449       .  S
C1064      C3681   1.468       .  S
O1065      C1075   1.296       .  A
O1066     Ni1073   1.952       .  S
O1066      C1076   1.288       .  A
O1067      C1077   1.270       .  A
O1068     Ni1073   1.894       .  S
O1068      C1078   1.271       .  A
O1069     Ni1074   1.941       .  S
O1069      C1078   1.290       .  A
O1070     Ni1074   1.951       .  S
O1071     Ni1074   1.870       .  S
O1071      C1076   1.269       .  A
O1072     Ni1074   1.881       .  S
Ni1073    Ni1074   2.390       .  S
C1075      C1089   1.474       .  S
C1076      C1246   1.449       .  S
C1077      C1454   1.449       .  S
C1078      C1105   1.468       .  S
O1079     Ni1087   1.978       .  S
O1079      C1089   1.296       .  A
O1080     Ni1087   1.952       .  S
O1080      C1090   1.288       .  A
O1081     Ni1087   1.874       .  S
O1081      C1091   1.270       .  A
O1082     Ni1087   1.894       .  S
O1082      C1092   1.271       .  A
O1083     Ni1088   1.941       .  S
O1083      C1092   1.290       .  A
O1084     Ni1088   1.951       .  S
O1084      C1091   1.288       .  A
O1085     Ni1088   1.870       .  S
O1085      C1090   1.269       .  A
O1086     Ni1088   1.881       .  S
O1086      C1089   1.269       .  A
Ni1087    Ni1088   2.390       .  S
C1090      C1400   1.449       .  S
C1091      C1314   1.449       .  S
O1093     Ni1101   1.978       .  S
O1093      C1103   1.296       .  A
O1094     Ni1101   1.952       .  S
O1094      C1104   1.288       .  A
O1095     Ni1101   1.894       .  S
O1095      C1105   1.271       .  A
O1096     Ni1101   1.874       .  S
O1096      C1106   1.270       .  A
O1097     Ni1102   1.951       .  S
O1097      C1106   1.288       .  A
O1098     Ni1102   1.941       .  S
O1098      C1105   1.290       .  A
O1099     Ni1102   1.870       .  S
O1099      C1104   1.269       .  A
O1100     Ni1102   1.881       .  S
O1100      C1103   1.269       .  A
Ni1101    Ni1102   2.390       .  S
C1103      C1117   1.474       .  S
C1104      C1329   1.449       .  S
C1106      C1356   1.449       .  S
O1107     Ni1115   1.978       .  S
O1107      C1117   1.296       .  A
O1108     Ni1115   1.952       .  S
O1108      C1118   1.288       .  A
O1109     Ni1115   1.894       .  S
O1109      C1119   1.271       .  A
O1110     Ni1115   1.874       .  S
O1110      C1120   1.270       .  A
O1111     Ni1116   1.951       .  S
O1111      C1120   1.288       .  A
O1112     Ni1116   1.941       .  S
O1112      C1119   1.290       .  A
O1113     Ni1116   1.870       .  S
O1113      C1118   1.269       .  A
O1114     Ni1116   1.881       .  S
O1114      C1117   1.269       .  A
Ni1115    Ni1116   2.390       .  S
C1118      C1427   1.449       .  S
C1120      C1272   1.449       .  S
O1121     Ni1129   1.978       .  S
O1121      C1131   1.296       .  A
O1122     Ni1129   1.952       .  S
O1122      C1132   1.288       .  A
O1123     Ni1129   1.874       .  S
O1123      C1133   1.270       .  A
O1124     Ni1129   1.894       .  S
O1124      C1134   1.271       .  A
O1125     Ni1130   1.941       .  S
O1125      C1134   1.290       .  A
O1126     Ni1130   1.951       .  S
O1126      C1133   1.288       .  A
O1127     Ni1130   1.870       .  S
O1127      C1132   1.269       .  A
O1128     Ni1130   1.881       .  S
O1128      C1131   1.269       .  A
Ni1129    Ni1130   2.390       .  S
C1131      C1145   1.474       .  S
C1132      C1442   1.449       .  S
C1133      C1258   1.449       .  S
C1134      C1175   1.468       .  S
O1135     Ni1143   1.978       .  S
O1135      C1145   1.296       .  A
O1136     Ni1143   1.952       .  S
O1136      C1146   1.288       .  A
O1137     Ni1143   1.874       .  S
O1137      C1147   1.270       .  A
O1138     Ni1143   1.894       .  S
O1138      C1148   1.271       .  A
O1139     Ni1144   1.941       .  S
O1139      C1148   1.290       .  A
O1140     Ni1144   1.951       .  S
O1140      C1147   1.288       .  A
O1141     Ni1144   1.870       .  S
O1141      C1146   1.269       .  A
O1142     Ni1144   1.881       .  S
O1142      C1145   1.269       .  A
Ni1143    Ni1144   2.390       .  S
C1146      C1190   1.449       .  S
C1147      C1510   1.449       .  S
O1149     Ni1157   1.978       .  S
O1149      C1159   1.296       .  A
O1150     Ni1157   1.952       .  S
O1150      C1160   1.288       .  A
O1151     Ni1157   1.894       .  S
O1151      C1161   1.271       .  A
O1152     Ni1157   1.874       .  S
O1152      C1162   1.270       .  A
O1153     Ni1158   1.951       .  S
O1153      C1162   1.288       .  A
O1154     Ni3174   1.941       .  S
O1154      C3177   1.290       .  A
O1155     Ni1158   1.870       .  S
O1155      C1160   1.269       .  A
O1156     Ni1158   1.881   1_655  S
O1156      C1159   1.269   1_655  A
Ni1157    Ni1158   2.390       .  S
Ni1158     O3170   1.941   1_455  S
C1159      C3189   1.474   1_455  S
C1160      C1231   1.449       .  S
C1161      O3170   1.290   1_455  A
C1161      C3584   1.468   1_454  S
C1162      C1482   1.449       .  S
O1163     Ni1171   1.978       .  S
O1163      C1173   1.296       .  A
O1164     Ni1171   1.952       .  S
O1164      C1174   1.288       .  A
O1165     Ni1171   1.894       .  S
O1165      C1175   1.271       .  A
O1166     Ni1171   1.874       .  S
O1166      C3192   1.270   1_554  A
O1167     Ni1676   1.951       .  S
O1167      C3696   1.288       .  A
O1168     Ni1172   1.941       .  S
O1168      C1175   1.290       .  A
O1169     Ni1172   1.870       .  S
O1169      C1174   1.269       .  A
O1170     Ni1172   1.881       .  S
O1170      C1173   1.269       .  A
Ni1171    Ni1172   2.390       .  S
Ni1172     O1671   1.951   1_554  S
C1173      C3175   1.474       .  S
C1174      C1371   1.449       .  S
C1176      O3182   1.270   1_556  A
C1176      O3687   1.288       .  A
C1176      C1846   1.449   1_655  S
O1177     Ni1185   1.978       .  S
O1177      C1187   1.296       .  A
O1178     Ni1185   1.952       .  S
O1178      C1188   1.288       .  A
O1179     Ni1185   1.894       .  S
O1179      C1189   1.271       .  A
O1180     Ni1185   1.874       .  S
O1180      C1190   1.270       .  A
O1181     Ni1186   1.951       .  S
O1181      C1190   1.288       .  A
O1182     Ni1186   1.941       .  S
O1182      C1189   1.290       .  A
O1183     Ni1186   1.870       .  S
O1183      C1188   1.269       .  A
O1184     Ni1186   1.881       .  S
O1184      C1187   1.269       .  A
Ni1185    Ni1186   2.390       .  S
C1187      C1201   1.474       .  S
C1188      C1483   1.449       .  S
O1191      C1201   1.296       .  A
O1192     Ni1199   1.952       .  S
O1192      C1202   1.288       .  A
O1193     Ni1199   1.894       .  S
O1193      C1203   1.271       .  A
O1194      C1204   1.270   1_554  A
O1195     Ni1704   1.951       .  S
O1196     Ni1200   1.941       .  S
O1196      C1203   1.290       .  A
O1197     Ni1200   1.870       .  S
O1197      C1202   1.269       .  A
O1198     Ni1200   1.881       .  S
Ni1199    Ni1200   2.390       .  S
Ni1200     O1699   1.951   1_554  S
C1203      C1218   1.468       .  S
C1204      C1874   1.449       .  S
O1205     Ni1213   1.978       .  S
O1205      C1215   1.296       .  A
O1206     Ni1213   1.952       .  S
O1206      C1216   1.288       .  A
O1207     Ni1213   1.874       .  S
O1207      C1217   1.270       .  A
O1208     Ni1213   1.894       .  S
O1208      C1218   1.271       .  A
O1209     Ni1214   1.941       .  S
O1209      C1218   1.290       .  A
O1210     Ni1214   1.951       .  S
O1210      C1217   1.288       .  A
O1211     Ni1214   1.870       .  S
O1211      C1216   1.269       .  A
O1212     Ni1214   1.881       .  S
O1212      C1215   1.269       .  A
Ni1213    Ni1214   2.390       .  S
C1215      C3245   1.474       .  S
C1217      C1440   1.449       .  S
O1219     Ni1227   1.978       .  S
O1219      C1229   1.296       .  A
O1220     Ni1227   1.952       .  S
O1220      C1230   1.288       .  A
O1221     Ni1227   1.874       .  S
O1221      C1231   1.270       .  A
O1222     Ni1227   1.894       .  S
O1222      C1232   1.271       .  A
O1223     Ni1228   1.941       .  S
O1223      C1232   1.290       .  A
O1224     Ni1228   1.951       .  S
O1224      C1231   1.288       .  A
O1225     Ni1228   1.870       .  S
O1225      C1230   1.269       .  A
O1226     Ni1228   1.881       .  S
O1226      C1229   1.269       .  A
Ni1227    Ni1228   2.390       .  S
C1229      C3231   1.474   1_455  S
C1230      C1512   1.449       .  S
C1232      C1245   1.468       .  S
O1233     Ni1241   1.978       .  S
O1233      C1243   1.296       .  A
O1234     Ni1241   1.952       .  S
O1234      C1244   1.288       .  A
O1235     Ni1241   1.894       .  S
O1235      C1245   1.271       .  A
O1236     Ni1241   1.874       .  S
O1236      C1246   1.270       .  A
O1237     Ni1242   1.951       .  S
O1237      C1246   1.288       .  A
O1238     Ni1242   1.941       .  S
O1238      C1245   1.290       .  A
O1239     Ni1242   1.870       .  S
O1239      C1244   1.269       .  A
O1240     Ni1242   1.881       .  S
O1240      C1243   1.269       .  A
Ni1241    Ni1242   2.390       .  S
C1243      C1257   1.474       .  S
C1244      C1413   1.449   1_455  S
O1247     Ni1255   1.978       .  S
O1247      C1257   1.296       .  A
O1248     Ni1255   1.952       .  S
O1248      C1258   1.288       .  A
O1249     Ni1255   1.894       .  S
O1249      C1259   1.271       .  A
O1250     Ni1255   1.874       .  S
O1250      C1260   1.270       .  A
O1251     Ni1256   1.951       .  S
O1251      C1260   1.288       .  A
O1252     Ni1256   1.941       .  S
O1252      C1259   1.290       .  A
O1253     Ni1256   1.870       .  S
O1253      C1258   1.269       .  A
O1254     Ni1256   1.881       .  S
O1254      C1257   1.269       .  A
Ni1255    Ni1256   2.390       .  S
C1259      C1274   1.468       .  S
C1260      C1468   1.449       .  S
O1261     Ni1269   1.978       .  S
O1261      C1271   1.296       .  A
O1262     Ni1269   1.952       .  S
O1262      C1272   1.288       .  A
O1263     Ni1269   1.874       .  S
O1263      C1273   1.270       .  A
O1264     Ni1269   1.894       .  S
O1264      C1274   1.271       .  A
O1265     Ni1270   1.941       .  S
O1265      C1274   1.290       .  A
O1266     Ni1270   1.951       .  S
O1266      C1273   1.288       .  A
O1267     Ni1270   1.870       .  S
O1267      C1272   1.269       .  A
O1268     Ni1270   1.881       .  S
O1268      C1271   1.269       .  A
Ni1269    Ni1270   2.390       .  S
C1271      C1285   1.474       .  S
C1273      C1398   1.449       .  S
O1275     Ni1283   1.978       .  S
O1275      C1285   1.296       .  A
O1276     Ni1283   1.952       .  S
O1276      C1286   1.288       .  A
O1277     Ni1283   1.874       .  S
O1277      C1287   1.270       .  A
O1278     Ni1283   1.894       .  S
O1278      C1288   1.271       .  A
O1279     Ni1284   1.941       .  S
O1279      C1288   1.290       .  A
O1280     Ni1284   1.951       .  S
O1280      C1287   1.288       .  A
O1281     Ni1284   1.870       .  S
O1281      C1286   1.269       .  A
O1282     Ni1284   1.881       .  S
O1282      C1285   1.269       .  A
Ni1283    Ni1284   2.390       .  S
C1286      C1456   1.449       .  S
C1288      C1301   1.468       .  S
O1289     Ni1297   1.978       .  S
O1289      C1299   1.296       .  A
O1290     Ni1297   1.952       .  S
O1290      C1300   1.288       .  A
O1291     Ni1297   1.894       .  S
O1291      C1301   1.271       .  A
O1292     Ni1297   1.874       .  S
O1292      C1302   1.270       .  A
O1293     Ni1298   1.951       .  S
O1293      C1302   1.288       .  A
O1294     Ni1298   1.941       .  S
O1294      C1301   1.290       .  A
O1295     Ni1298   1.870       .  S
O1295      C1300   1.269       .  A
O1296     Ni1298   1.881       .  S
O1296      C1299   1.269       .  A
Ni1297    Ni1298   2.390       .  S
C1299      C3329   1.474       .  S
C1300      C1357   1.449       .  S
O1303     Ni1311   1.978       .  S
O1303      C1313   1.296       .  A
O1304     Ni1311   1.952       .  S
O1304      C1314   1.288       .  A
O1305     Ni1311   1.894       .  S
O1305      C1315   1.271       .  A
O1306     Ni1311   1.874       .  S
O1306      C1316   1.270       .  A
O1307     Ni1312   1.951       .  S
O1307      C1316   1.288       .  A
O1308     Ni1312   1.941       .  S
O1308      C1315   1.290       .  A
O1309     Ni1312   1.870       .  S
O1309      C1314   1.269       .  A
O1310     Ni1312   1.881       .  S
O1310      C1313   1.269       .  A
Ni1311    Ni1312   2.390       .  S
C1313      C3315   1.474   1_455  S
C1315      C1344   1.468       .  S
C1316      C1426   1.449       .  S
O1317     Ni1325   1.978       .  S
O1317      C1327   1.296       .  A
O1318     Ni1325   1.952       .  S
O1318      C1328   1.288       .  A
O1319     Ni1325   1.874       .  S
O1319      C1329   1.270       .  A
O1320     Ni1325   1.894       .  S
O1320      C1330   1.271       .  A
O1322     Ni1326   1.951       .  S
O1322      C1329   1.288       .  A
O1323     Ni1326   1.870       .  S
O1323      C1328   1.269       .  A
O1324     Ni1326   1.881       .  S
O1324      C1327   1.269       .  A
Ni1325    Ni1326   2.390       .  S
C1328      C1386   1.449       .  S
O1331     Ni1339   1.978       .  S
O1331      C1341   1.296       .  A
O1332     Ni1339   1.952       .  S
O1332      C1342   1.288       .  A
O1333     Ni1339   1.874       .  S
O1334     Ni1339   1.894       .  S
O1334      C1344   1.271       .  A
O1335     Ni1340   1.941       .  S
O1335      C1344   1.290       .  A
O1336     Ni1844   1.951   1_554  S
O1337     Ni1340   1.870       .  S
O1337      C1342   1.269       .  A
O1338     Ni1340   1.881       .  S
O1338      C1341   1.269       .  A
Ni1339    Ni1340   2.390       .  S
Ni1340     O1840   1.951       .  S
C1342      C1680   1.449   1_455  S
C1343      C1496   1.449       .  S
O1345     Ni1353   1.978       .  S
O1345      C1355   1.296       .  A
O1346     Ni1353   1.952       .  S
O1346      C1356   1.288       .  A
O1347     Ni1353   1.874       .  S
O1347      C1357   1.270       .  A
O1348     Ni1353   1.894       .  S
O1348      C1358   1.271       .  A
O1349     Ni1354   1.941       .  S
O1349      C1358   1.290       .  A
O1350     Ni1354   1.951       .  S
O1350      C1357   1.288       .  A
O1351     Ni1354   1.870       .  S
O1351      C1356   1.269       .  A
O1352     Ni1354   1.881       .  S
O1352      C1355   1.269       .  A
Ni1353    Ni1354   2.390       .  S
C1355      C1369   1.474       .  S
C1358      C2015   1.468       .  S
O1359     Ni1367   1.978       .  S
O1359      C1369   1.296       .  A
O1360     Ni1367   1.952       .  S
O1360      C1370   1.288       .  A
O1361     Ni1367   1.874       .  S
O1361      C1875   1.270       .  A
O1362     Ni1367   1.894       .  S
O1362      C1372   1.271       .  A
O1363     Ni1368   1.941       .  S
O1363      C1372   1.290       .  A
O1364     Ni1872   1.951   1_554  S
O1364      C1371   1.288       .  A
O1365     Ni1368   1.870       .  S
O1365      C1370   1.269       .  A
O1366     Ni1368   1.881       .  S
O1366      C1369   1.269       .  A
Ni1367    Ni1368   2.390       .  S
Ni1368     O1868   1.951       .  S
C1370      C1708   1.449       .  S
C1371      O1865   1.270   1_554  A
C1372      C1399   1.468       .  S
O1373     Ni1381   1.978       .  S
O1373      C1383   1.296       .  A
O1374     Ni1381   1.952       .  S
O1374      C1384   1.288       .  A
O1375     Ni1381   1.894       .  S
O1375      C1385   1.271       .  A
O1376     Ni1381   1.874       .  S
O1376      C1386   1.270       .  A
O1377     Ni1382   1.951       .  S
O1377      C1386   1.288       .  A
O1378     Ni1382   1.941       .  S
O1378      C1385   1.290       .  A
O1379     Ni1382   1.870       .  S
O1379      C1384   1.269       .  A
O1380     Ni1382   1.881       .  S
O1380      C1383   1.269       .  A
Ni1381    Ni1382   2.390       .  S
C1385      C1414   1.468       .  S
O1387     Ni1395   1.978       .  S
O1387      C1397   1.296       .  A
O1388     Ni1395   1.952       .  S
O1388      C1398   1.288       .  A
O1389     Ni1395   1.894       .  S
O1389      C1399   1.271       .  A
O1390     Ni1395   1.874       .  S
O1390      C1400   1.270       .  A
O1391     Ni1396   1.951       .  S
O1391      C1400   1.288       .  A
O1392     Ni1396   1.941       .  S
O1392      C1399   1.290       .  A
O1393     Ni1396   1.870       .  S
O1393      C1398   1.269       .  A
O1394     Ni1396   1.881       .  S
O1394      C1397   1.269       .  A
Ni1395    Ni1396   2.390       .  S
O1401     Ni1409   1.978       .  S
O1401      C1411   1.296       .  A
O1402     Ni1409   1.952       .  S
O1402      C1412   1.288       .  A
O1403     Ni1409   1.874       .  S
O1403      C3429   1.270       .  A
O1404     Ni1409   1.894       .  S
O1404      C1414   1.271       .  A
O1405     Ni1410   1.941       .  S
O1405      C1414   1.290       .  A
O1406     Ni1410   1.951       .  S
O1406      C3429   1.288       .  A
O1407     Ni1410   1.870       .  S
O1407      C1412   1.269       .  A
O1408     Ni1410   1.881       .  S
O1408      C1411   1.269       .  A
Ni1409    Ni1410   2.390       .  S
C1411      C3441   1.474       .  S
C1413      O3419   1.270       .  A
C1413      O3422   1.288       .  A
O1415     Ni1423   1.978       .  S
O1415      C1425   1.296       .  A
O1416     Ni1423   1.952       .  S
O1416      C1426   1.288       .  A
O1417     Ni1423   1.874       .  S
O1417      C1427   1.270       .  A
O1418     Ni1423   1.894       .  S
O1418      C1428   1.271       .  A
O1419     Ni3440   1.941       .  S
O1419      C3444   1.290       .  A
O1420     Ni1424   1.951       .  S
O1420      C1427   1.288       .  A
O1421     Ni1424   1.870       .  S
O1421      C1426   1.269       .  A
O1422     Ni1424   1.881   1_655  S
O1422      C1425   1.269   1_655  A
Ni1423    Ni1424   2.390       .  S
Ni1424     O3435   1.941   1_455  S
C1425      C3427   1.474   1_455  S
C1428      O3435   1.290   1_455  A
C1428      C3457   1.468   1_455  S
O1429     Ni1437   1.978       .  S
O1429      C1439   1.296       .  A
O1430     Ni1437   1.952       .  S
O1430      C1440   1.288       .  A
O1431     Ni1437   1.894       .  S
O1431      C1441   1.271       .  A
O1432     Ni1437   1.874       .  S
O1432      C1442   1.270       .  A
O1433     Ni1438   1.951       .  S
O1433      C1442   1.288       .  A
O1434     Ni1438   1.941       .  S
O1434      C1441   1.290       .  A
O1435     Ni1438   1.870       .  S
O1435      C1440   1.269       .  A
O1436     Ni1438   1.881       .  S
O1436      C1439   1.269       .  A
Ni1437    Ni1438   2.390       .  S
C1439      C1453   1.474       .  S
C1441      C3444   1.468       .  S
O1443     Ni3467   1.978       .  S
O1443      C1453   1.296       .  A
O1444     Ni1451   1.952       .  S
O1444      C1454   1.288       .  A
O1445     Ni1451   1.894       .  S
O1445      C1455   1.271       .  A
O1446     Ni3467   1.874       .  S
O1446      C1456   1.270       .  A
O1447     Ni1452   1.951       .  S
O1447      C3472   1.288   1_455  A
O1448     Ni1452   1.941       .  S
O1448      C1455   1.290       .  A
O1449     Ni1452   1.870       .  S
O1449      C1454   1.269       .  A
O1450     Ni1452   1.881       .  S
O1450      C3469   1.269   1_455  A
Ni1451     O3459   1.978   1_455  S
Ni1451     O3462   1.874   1_455  S
Ni1451    Ni1452   2.390       .  S
C1453      O3466   1.269       .  A
C1455      C1484   1.468       .  S
C1456      O3463   1.288       .  A
O1457     Ni1465   1.978       .  S
O1457      C1467   1.296       .  A
O1458     Ni1465   1.952       .  S
O1458      C1468   1.288       .  A
O1459     Ni1465   1.874       .  S
O1459      C1469   1.270       .  A
O1460     Ni1465   1.894       .  S
O1460      C1470   1.271       .  A
O1461     Ni1466   1.941       .  S
O1461      C1470   1.290       .  A
O1462     Ni1466   1.951       .  S
O1462      C1469   1.288       .  A
O1463     Ni1466   1.870       .  S
O1463      C1468   1.269       .  A
O1464     Ni1466   1.881       .  S
O1464      C1467   1.269       .  A
Ni1465    Ni1466   2.390       .  S
C1470      C1497   1.468       .  S
O1471     Ni1479   1.978       .  S
O1471      C1481   1.296       .  A
O1472     Ni1479   1.952       .  S
O1472      C1482   1.288       .  A
O1473     Ni1479   1.874       .  S
O1473      C1483   1.270       .  A
O1474     Ni1479   1.894       .  S
O1474      C1484   1.271       .  A
O1475     Ni1480   1.941       .  S
O1475      C1484   1.290       .  A
O1476     Ni1480   1.951       .  S
O1476      C1483   1.288       .  A
O1477     Ni1480   1.870       .  S
O1477      C1482   1.269       .  A
O1478     Ni1480   1.881       .  S
O1478      C1481   1.269       .  A
Ni1479    Ni1480   2.390       .  S
O1485     Ni1493   1.978       .  S
O1485      C1495   1.296       .  A
O1486     Ni1493   1.952       .  S
O1486      C1496   1.288       .  A
O1487     Ni1493   1.894       .  S
O1487      C1497   1.271       .  A
O1488     Ni1493   1.874       .  S
O1488      C1498   1.270   1_554  A
O1489     Ni1998   1.951       .  S
O1489      C2002   1.288       .  A
O1490     Ni1494   1.941       .  S
O1490      C1497   1.290       .  A
O1491     Ni1494   1.870       .  S
O1491      C1496   1.269       .  A
O1492     Ni1494   1.881       .  S
O1492      C1495   1.269       .  A
Ni1493    Ni1494   2.390       .  S
Ni1494     O1993   1.951   1_554  S
C1495      C1509   1.474       .  S
C1498      O1993   1.288       .  A
C1498      C1552   1.449       .  S
O1499     Ni1507   1.978       .  S
O1499      C1509   1.296       .  A
O1500     Ni1507   1.952       .  S
O1500      C1510   1.288       .  A
O1501     Ni1507   1.894       .  S
O1501      C1511   1.271       .  A
O1502     Ni1507   1.874       .  S
O1502      C1512   1.270       .  A
O1503     Ni1508   1.951       .  S
O1503      C1512   1.288       .  A
O1504     Ni1508   1.941       .  S
O1504      C1511   1.290       .  A
O1505     Ni1508   1.870       .  S
O1505      C1510   1.269       .  A
O1506     Ni1508   1.881       .  S
O1506      C1509   1.269       .  A
Ni1507    Ni1508   2.390       .  S
C1511      C1862   1.468   1_554  S
O1513     Ni1521   1.978       .  S
O1513      C1523   1.296       .  A
O1514     Ni1521   1.952       .  S
O1514      C1524   1.288       .  A
O1515     Ni1521   1.894       .  S
O1515      C1525   1.271       .  A
O1516     Ni1521   1.874       .  S
O1517     Ni1522   1.951       .  S
O1518     Ni1522   1.941       .  S
O1518      C1525   1.290       .  A
O1519     Ni1522   1.870       .  S
O1519      C1524   1.269       .  A
O1520     Ni1522   1.881       .  S
O1520      C1523   1.269       .  A
Ni1521    Ni1522   2.390       .  S
C1524      C1791   1.449       .  S
C1525      C1652   1.468       .  S
C1526      C1916   1.449       .  S
O1527     Ni1535   1.978       .  S
O1527      C1537   1.296       .  A
O1528     Ni1535   1.952       .  S
O1528      C1538   1.288       .  A
O1529     Ni1535   1.894       .  S
O1529      C1539   1.271       .  A
O1530     Ni1535   1.874       .  S
O1530      C1540   1.270       .  A
O1531     Ni1536   1.951       .  S
O1531      C1540   1.288       .  A
O1533     Ni1536   1.870       .  S
O1533      C1538   1.269       .  A
O1534     Ni1536   1.881       .  S
O1534      C1537   1.269       .  A
Ni1535    Ni1536   2.390       .  S
C1538      C1973   1.449       .  S
C1540      C1720   1.449       .  S
O1541     Ni3565   1.978       .  S
O1541      C1551   1.296       .  A
O1542     Ni1549   1.952       .  S
O1542      C1552   1.288       .  A
O1543     Ni3565   1.874       .  S
O1544     Ni1549   1.894       .  S
O1544      C1554   1.271       .  A
O1545     Ni1550   1.941       .  S
O1545      C1554   1.290       .  A
O1546      C3569   1.288   1_455  A
O1547     Ni1550   1.870       .  S
O1547      C1552   1.269       .  A
O1548     Ni1550   1.881       .  S
O1548      C3567   1.269   1_455  A
Ni1549     O3557   1.978   1_455  S
Ni1549     O3559   1.874   1_455  S
Ni1549    Ni1550   2.390       .  S
C1551      O3564   1.269       .  A
C1551      C1565   1.474       .  S
C1553      O3562   1.288       .  A
C1553      C1706   1.449       .  S
C1554      C1623   1.468       .  S
O1555     Ni1563   1.978       .  S
O1555      C1565   1.296       .  A
O1556     Ni1563   1.952       .  S
O1556      C1566   1.288       .  A
O1557     Ni1563   1.874       .  S
O1557      C1567   1.270       .  A
O1558     Ni1563   1.894       .  S
O1558      C1568   1.271       .  A
O1559     Ni1564   1.941       .  S
O1559      C1568   1.290       .  A
O1560     Ni1564   1.951       .  S
O1560      C1567   1.288       .  A
O1561     Ni1564   1.870       .  S
O1561      C1566   1.269       .  A
O1562     Ni1564   1.881       .  S
O1562      C1565   1.269       .  A
Ni1563    Ni1564   2.390       .  S
C1566      C1806   1.449       .  S
C1567      C1888   1.449       .  S
C1568      C3177   1.468   1_556  S
O1569      C1579   1.296       .  A
O1570     Ni1577   1.952       .  S
O1570      C1580   1.288       .  A
O1571      C1581   1.270       .  A
O1572     Ni1577   1.894       .  S
O1572      C1582   1.271       .  A
O1573     Ni1578   1.941       .  S
O1573      C1582   1.290       .  A
O1574     Ni1578   1.951       .  S
O1575     Ni1578   1.870       .  S
O1575      C1580   1.269       .  A
O1576     Ni1578   1.881       .  S
Ni1577    Ni1578   2.390       .  S
C1579      C1593   1.474       .  S
C1580      C1750   1.449       .  S
C1581      C1958   1.449       .  S
C1582      C1609   1.468       .  S
O1583     Ni1591   1.978       .  S
O1583      C1593   1.296       .  A
O1584     Ni1591   1.952       .  S
O1584      C1594   1.288       .  A
O1585     Ni1591   1.874       .  S
O1585      C1595   1.270       .  A
O1586     Ni1591   1.894       .  S
O1586      C1596   1.271       .  A
O1587     Ni1592   1.941       .  S
O1587      C1596   1.290       .  A
O1588     Ni1592   1.951       .  S
O1588      C1595   1.288       .  A
O1589     Ni1592   1.870       .  S
O1589      C1594   1.269       .  A
O1590     Ni1592   1.881       .  S
O1590      C1593   1.269       .  A
Ni1591    Ni1592   2.390       .  S
C1594      C1904   1.449       .  S
C1595      C1818   1.449       .  S
O1597     Ni1605   1.978       .  S
O1597      C1607   1.296       .  A
O1598     Ni1605   1.952       .  S
O1598      C1608   1.288       .  A
O1599     Ni1605   1.894       .  S
O1599      C1609   1.271       .  A
O1600     Ni1605   1.874       .  S
O1600      C1610   1.270       .  A
O1601     Ni1606   1.951       .  S
O1601      C1610   1.288       .  A
O1602     Ni1606   1.941       .  S
O1602      C1609   1.290       .  A
O1603     Ni1606   1.870       .  S
O1603      C1608   1.269       .  A
O1604     Ni1606   1.881       .  S
O1604      C1607   1.269       .  A
Ni1605    Ni1606   2.390       .  S
C1607      C1621   1.474       .  S
C1608      C1833   1.449       .  S
C1610      C1860   1.449       .  S
O1611     Ni1619   1.978       .  S
O1611      C1621   1.296       .  A
O1612     Ni1619   1.952       .  S
O1612      C1622   1.288       .  A
O1613     Ni1619   1.894       .  S
O1613      C1623   1.271       .  A
O1614     Ni1619   1.874       .  S
O1614      C1624   1.270       .  A
O1615     Ni1620   1.951       .  S
O1615      C1624   1.288       .  A
O1616     Ni1620   1.941       .  S
O1616      C1623   1.290       .  A
O1617     Ni1620   1.870       .  S
O1617      C1622   1.269       .  A
O1618     Ni1620   1.881       .  S
O1618      C1621   1.269       .  A
Ni1619    Ni1620   2.390       .  S
C1622      C1931   1.449       .  S
C1624      C1776   1.449       .  S
O1625     Ni1633   1.978       .  S
O1625      C1635   1.296       .  A
O1626     Ni1633   1.952       .  S
O1626      C1636   1.288       .  A
O1627     Ni1633   1.874       .  S
O1627      C1637   1.270       .  A
O1628     Ni1633   1.894       .  S
O1628      C1638   1.271       .  A
O1629     Ni1634   1.941       .  S
O1629      C1638   1.290       .  A
O1630     Ni1634   1.951       .  S
O1630      C1637   1.288       .  A
O1631     Ni1634   1.870       .  S
O1631      C1636   1.269       .  A
O1632     Ni1634   1.881       .  S
O1632      C1635   1.269       .  A
Ni1633    Ni1634   2.390       .  S
C1635      C1649   1.474       .  S
C1636      C1946   1.449       .  S
C1637      C1762   1.449       .  S
C1638      C1679   1.468       .  S
O1639     Ni1647   1.978       .  S
O1639      C1649   1.296       .  A
O1640     Ni1647   1.952       .  S
O1640      C1650   1.288       .  A
O1641     Ni1647   1.874       .  S
O1641      C1651   1.270       .  A
O1642     Ni1647   1.894       .  S
O1642      C1652   1.271       .  A
O1643     Ni1648   1.941       .  S
O1643      C1652   1.290       .  A
O1644     Ni1648   1.951       .  S
O1644      C1651   1.288       .  A
O1645     Ni1648   1.870       .  S
O1645      C1650   1.269       .  A
O1646     Ni1648   1.881       .  S
O1646      C1649   1.269       .  A
Ni1647    Ni1648   2.390       .  S
C1650      C1694   1.449       .  S
C1651      C2014   1.449       .  S
O1653     Ni1661   1.978       .  S
O1653      C1663   1.296       .  A
O1654     Ni1661   1.952       .  S
O1654      C1664   1.288       .  A
O1655     Ni1661   1.894       .  S
O1655      C1665   1.271       .  A
O1656     Ni1661   1.874       .  S
O1656      C1666   1.270       .  A
O1657     Ni1662   1.951       .  S
O1657      C1666   1.288       .  A
O1658     Ni3678   1.941       .  S
O1658      C3681   1.290       .  A
O1659     Ni1662   1.870       .  S
O1659      C1664   1.269       .  A
O1660     Ni1662   1.881   1_655  S
O1660      C1663   1.269   1_655  A
Ni1661    Ni1662   2.390       .  S
Ni1662     O3674   1.941   1_455  S
C1663      C3693   1.474   1_455  S
C1664      C1735   1.449       .  S
C1665      O3674   1.290   1_455  A
C1665      C3080   1.468   1_455  S
C1666      C1986   1.449       .  S
O1667     Ni1675   1.978       .  S
O1667      C1677   1.296       .  A
O1668     Ni1675   1.952       .  S
O1668      C1678   1.288       .  A
O1669     Ni1675   1.894       .  S
O1669      C1679   1.271       .  A
O1670     Ni1675   1.874       .  S
O1670      C3696   1.270       .  A
O1671      C3192   1.288       .  A
O1672     Ni1676   1.941       .  S
O1672      C1679   1.290       .  A
O1673     Ni1676   1.870       .  S
O1673      C1678   1.269       .  A
O1674     Ni1676   1.881       .  S
O1674      C1677   1.269       .  A
Ni1675    Ni1676   2.390       .  S
C1677      C3679   1.474       .  S
C1678      C1875   1.449       .  S
C1680      O3686   1.270       .  A
C1680      O3183   1.288       .  A
O1681     Ni1689   1.978       .  S
O1681      C1691   1.296       .  A
O1682     Ni1689   1.952       .  S
O1682      C1692   1.288       .  A
O1683     Ni1689   1.894       .  S
O1683      C1693   1.271       .  A
O1684     Ni1689   1.874       .  S
O1684      C1694   1.270       .  A
O1685     Ni1690   1.951       .  S
O1685      C1694   1.288       .  A
O1686     Ni1690   1.941       .  S
O1686      C1693   1.290       .  A
O1687     Ni1690   1.870       .  S
O1687      C1692   1.269       .  A
O1688     Ni1690   1.881       .  S
O1688      C1691   1.269       .  A
Ni1689    Ni1690   2.390       .  S
C1691      C1705   1.474       .  S
C1692      C1987   1.449       .  S
O1695      C1705   1.296       .  A
O1696     Ni1703   1.952       .  S
O1696      C1706   1.288       .  A
O1697     Ni1703   1.894       .  S
O1697      C1707   1.271       .  A
O1698      C1708   1.270       .  A
O1700     Ni1704   1.941       .  S
O1700      C1707   1.290       .  A
O1701     Ni1704   1.870       .  S
O1701      C1706   1.269       .  A
O1702     Ni1704   1.881       .  S
Ni1703    Ni1704   2.390       .  S
C1707      C1722   1.468       .  S
O1709     Ni1717   1.978       .  S
O1709      C1719   1.296       .  A
O1710     Ni1717   1.952       .  S
O1710      C1720   1.288       .  A
O1711     Ni1717   1.874       .  S
O1711      C1721   1.270       .  A
O1712     Ni1717   1.894       .  S
O1712      C1722   1.271       .  A
O1713     Ni1718   1.941       .  S
O1713      C1722   1.290       .  A
O1714     Ni1718   1.951       .  S
O1714      C1721   1.288       .  A
O1715     Ni1718   1.870       .  S
O1715      C1720   1.269       .  A
O1716     Ni1718   1.881       .  S
O1716      C1719   1.269       .  A
Ni1717    Ni1718   2.390       .  S
C1719      C3749   1.474       .  S
C1721      C1944   1.450       .  S
O1723     Ni1731   1.978       .  S
O1723      C1733   1.296       .  A
O1724     Ni1731   1.952       .  S
O1724      C1734   1.288       .  A
O1725     Ni1731   1.874       .  S
O1725      C1735   1.270       .  A
O1726     Ni1731   1.894       .  S
O1726      C1736   1.271       .  A
O1727     Ni1732   1.941       .  S
O1727      C1736   1.290       .  A
O1728     Ni1732   1.951       .  S
O1728      C1735   1.288       .  A
O1729     Ni1732   1.870       .  S
O1729      C1734   1.269       .  A
O1730     Ni1732   1.881       .  S
O1730      C1733   1.269       .  A
Ni1731    Ni1732   2.390       .  S
C1733      C3735   1.474   1_455  S
C1734      C2016   1.449       .  S
C1736      C1749   1.468       .  S
O1737     Ni1745   1.978       .  S
O1737      C1747   1.296       .  A
O1738     Ni1745   1.952       .  S
O1738      C1748   1.288       .  A
O1739     Ni1745   1.894       .  S
O1739      C1749   1.271       .  A
O1740     Ni1745   1.874       .  S
O1740      C1750   1.270       .  A
O1741     Ni1746   1.951       .  S
O1741      C1750   1.288       .  A
O1742     Ni1746   1.941       .  S
O1742      C1749   1.290       .  A
O1743     Ni1746   1.870       .  S
O1743      C1748   1.269       .  A
O1744     Ni1746   1.881       .  S
O1744      C1747   1.269       .  A
Ni1745    Ni1746   2.390       .  S
C1747      C1761   1.474       .  S
C1748      C1917   1.449   1_455  S
O1751     Ni1759   1.978       .  S
O1751      C1761   1.296       .  A
O1752     Ni1759   1.952       .  S
O1752      C1762   1.288       .  A
O1753     Ni1759   1.894       .  S
O1753      C1763   1.271       .  A
O1754     Ni1759   1.874       .  S
O1754      C1764   1.270       .  A
O1755     Ni1760   1.951       .  S
O1755      C1764   1.288       .  A
O1756     Ni1760   1.941       .  S
O1756      C1763   1.290       .  A
O1757     Ni1760   1.870       .  S
O1757      C1762   1.269       .  A
O1758     Ni1760   1.881       .  S
O1758      C1761   1.269       .  A
Ni1759    Ni1760   2.390       .  S
C1763      C1778   1.468       .  S
C1764      C1972   1.449       .  S
O1765     Ni1773   1.978       .  S
O1765      C1775   1.296       .  A
O1766     Ni1773   1.952       .  S
O1766      C1776   1.288       .  A
O1767     Ni1773   1.874       .  S
O1767      C1777   1.270       .  A
O1768     Ni1773   1.894       .  S
O1768      C1778   1.271       .  A
O1769     Ni1774   1.941       .  S
O1769      C1778   1.290       .  A
O1770     Ni1774   1.951       .  S
O1770      C1777   1.288       .  A
O1771     Ni1774   1.870       .  S
O1771      C1776   1.269       .  A
O1772     Ni1774   1.881       .  S
O1772      C1775   1.269       .  A
Ni1773    Ni1774   2.390       .  S
C1775      C1789   1.474       .  S
C1777      C1902   1.449       .  S
O1779     Ni1787   1.978       .  S
O1779      C1789   1.296       .  A
O1780     Ni1787   1.952       .  S
O1780      C1790   1.288       .  A
O1781     Ni1787   1.874       .  S
O1781      C1791   1.270       .  A
O1782     Ni1787   1.894       .  S
O1782      C1792   1.271       .  A
O1783     Ni1788   1.941       .  S
O1783      C1792   1.290       .  A
O1784     Ni1788   1.951       .  S
O1784      C1791   1.288       .  A
O1785     Ni1788   1.870       .  S
O1785      C1790   1.269       .  A
O1786     Ni1788   1.881       .  S
O1786      C1789   1.269       .  A
Ni1787    Ni1788   2.390       .  S
C1790      C1960   1.449       .  S
C1792      C1805   1.468       .  S
O1793     Ni1801   1.978       .  S
O1793      C1803   1.296       .  A
O1794     Ni1801   1.952       .  S
O1794      C1804   1.288       .  A
O1795     Ni1801   1.894       .  S
O1795      C1805   1.271       .  A
O1796     Ni1801   1.874       .  S
O1796      C1806   1.270       .  A
O1797     Ni1802   1.951       .  S
O1797      C1806   1.288       .  A
O1798     Ni1802   1.941       .  S
O1798      C1805   1.290       .  A
O1799     Ni1802   1.870       .  S
O1799      C1804   1.269       .  A
O1800     Ni1802   1.881       .  S
O1800      C1803   1.269       .  A
Ni1801    Ni1802   2.390       .  S
C1803      C3833   1.474       .  S
C1804      C1861   1.449       .  S
O1807     Ni1815   1.978       .  S
O1807      C1817   1.296       .  A
O1808     Ni1815   1.952       .  S
O1808      C1818   1.288       .  A
O1809     Ni1815   1.894       .  S
O1809      C1819   1.271       .  A
O1810     Ni1815   1.874       .  S
O1810      C1820   1.270       .  A
O1811     Ni1816   1.951       .  S
O1811      C1820   1.288       .  A
O1812     Ni1816   1.941       .  S
O1812      C1819   1.290       .  A
O1813     Ni1816   1.870       .  S
O1813      C1818   1.269       .  A
O1814     Ni1816   1.881       .  S
O1814      C1817   1.269       .  A
Ni1815    Ni1816   2.390       .  S
C1817      C3819   1.474   1_455  S
C1819      C1848   1.468       .  S
C1820      C1930   1.449       .  S
O1821     Ni1829   1.978       .  S
O1821      C1831   1.296       .  A
O1822     Ni1829   1.952       .  S
O1822      C1832   1.288       .  A
O1823     Ni1829   1.874       .  S
O1823      C1833   1.270       .  A
O1824     Ni1829   1.894       .  S
O1824      C1834   1.271       .  A
O1826     Ni1830   1.951       .  S
O1826      C1833   1.288       .  A
O1827     Ni1830   1.870       .  S
O1827      C1832   1.269       .  A
O1828     Ni1830   1.881       .  S
O1828      C1831   1.269       .  A
Ni1829    Ni1830   2.390       .  S
C1832      C1890   1.449       .  S
O1835     Ni1843   1.978       .  S
O1835      C1845   1.296       .  A
O1836     Ni1843   1.952       .  S
O1836      C1846   1.288       .  A
O1837     Ni1843   1.874       .  S
O1838     Ni1843   1.894       .  S
O1838      C1848   1.271       .  A
O1839     Ni1844   1.941       .  S
O1839      C1848   1.290       .  A
O1841     Ni1844   1.870       .  S
O1841      C1846   1.269       .  A
O1842     Ni1844   1.881       .  S
O1842      C1845   1.269       .  A
Ni1843    Ni1844   2.390       .  S
C1847      C2000   1.449       .  S
O1849     Ni1857   1.978       .  S
O1849      C1859   1.296       .  A
O1850     Ni1857   1.952       .  S
O1850      C1860   1.288       .  A
O1851     Ni1857   1.874       .  S
O1851      C1861   1.270       .  A
O1852     Ni1857   1.894       .  S
O1852      C1862   1.271       .  A
O1853     Ni1858   1.941       .  S
O1853      C1862   1.290       .  A
O1854     Ni1858   1.951       .  S
O1854      C1861   1.288       .  A
O1855     Ni1858   1.870       .  S
O1855      C1860   1.269       .  A
O1856     Ni1858   1.881       .  S
O1856      C1859   1.269       .  A
Ni1857    Ni1858   2.390       .  S
C1859      C1873   1.474       .  S
O1863     Ni1871   1.978       .  S
O1863      C1873   1.296       .  A
O1864     Ni1871   1.952       .  S
O1864      C1874   1.288       .  A
O1865     Ni1871   1.874       .  S
O1866     Ni1871   1.894       .  S
O1866      C1876   1.271       .  A
O1867     Ni1872   1.941       .  S
O1867      C1876   1.290       .  A
O1868      C1875   1.288       .  A
O1869     Ni1872   1.870       .  S
O1869      C1874   1.269       .  A
O1870     Ni1872   1.881       .  S
O1870      C1873   1.269       .  A
Ni1871    Ni1872   2.390       .  S
C1876      C1903   1.468       .  S
O1877     Ni1885   1.978       .  S
O1877      C1887   1.296       .  A
O1878     Ni1885   1.952       .  S
O1878      C1888   1.288       .  A
O1879     Ni1885   1.894       .  S
O1879      C1889   1.271       .  A
O1880     Ni1885   1.874       .  S
O1880      C1890   1.270       .  A
O1881     Ni1886   1.951       .  S
O1881      C1890   1.288       .  A
O1882     Ni1886   1.941       .  S
O1882      C1889   1.290       .  A
O1883     Ni1886   1.870       .  S
O1883      C1888   1.269       .  A
O1884     Ni1886   1.881       .  S
O1884      C1887   1.269       .  A
Ni1885    Ni1886   2.390       .  S
C1889      C1918   1.468       .  S
O1891     Ni1899   1.978       .  S
O1891      C1901   1.296       .  A
O1892     Ni1899   1.952       .  S
O1892      C1902   1.288       .  A
O1893     Ni1899   1.894       .  S
O1893      C1903   1.271       .  A
O1894     Ni1899   1.874       .  S
O1894      C1904   1.270       .  A
O1895     Ni1900   1.951       .  S
O1895      C1904   1.288       .  A
O1896     Ni1900   1.941       .  S
O1896      C1903   1.290       .  A
O1897     Ni1900   1.870       .  S
O1897      C1902   1.269       .  A
O1898     Ni1900   1.881       .  S
O1898      C1901   1.269       .  A
Ni1899    Ni1900   2.390       .  S
O1905     Ni1913   1.978       .  S
O1905      C1915   1.296       .  A
O1906     Ni1913   1.952       .  S
O1906      C1916   1.288       .  A
O1907     Ni1913   1.874       .  S
O1907      C3933   1.270       .  A
O1908     Ni1913   1.894       .  S
O1908      C1918   1.271       .  A
O1909     Ni1914   1.941       .  S
O1909      C1918   1.290       .  A
O1910     Ni1914   1.951       .  S
O1910      C3933   1.288       .  A
O1911     Ni1914   1.870       .  S
O1911      C1916   1.269       .  A
O1912     Ni1914   1.881       .  S
O1912      C1915   1.269       .  A
Ni1913    Ni1914   2.390       .  S
C1915      C3945   1.474       .  S
C1917      O3923   1.270       .  A
C1917      O3926   1.288       .  A
O1919     Ni1927   1.978       .  S
O1919      C1929   1.296       .  A
O1920     Ni1927   1.952       .  S
O1920      C1930   1.288       .  A
O1921     Ni1927   1.874       .  S
O1921      C1931   1.270       .  A
O1922     Ni1927   1.894       .  S
O1922      C1932   1.271       .  A
O1923     Ni3944   1.941       .  S
O1923      C3948   1.290       .  A
O1924     Ni1928   1.951       .  S
O1924      C1931   1.288       .  A
O1925     Ni1928   1.870       .  S
O1925      C1930   1.269       .  A
O1926     Ni1928   1.881   1_655  S
O1926      C1929   1.269   1_655  A
Ni1927    Ni1928   2.390       .  S
Ni1928     O3939   1.941   1_455  S
C1929      C3931   1.474   1_455  S
C1932      O3939   1.290   1_455  A
C1932      C3961   1.468   1_455  S
O1933     Ni1941   1.978       .  S
O1933      C1943   1.296       .  A
O1934     Ni1941   1.952       .  S
O1934      C1944   1.288       .  A
O1935     Ni1941   1.894       .  S
O1935      C1945   1.271       .  A
O1936     Ni1941   1.874       .  S
O1936      C1946   1.270       .  A
O1937     Ni1942   1.951       .  S
O1937      C1946   1.288       .  A
O1938     Ni1942   1.941       .  S
O1938      C1945   1.290       .  A
O1939     Ni1942   1.870       .  S
O1939      C1944   1.269       .  A
O1940     Ni1942   1.881       .  S
O1940      C1943   1.269       .  A
Ni1941    Ni1942   2.390       .  S
C1943      C1957   1.474       .  S
C1945      C3948   1.468       .  S
O1947     Ni3971   1.978       .  S
O1947      C1957   1.296       .  A
O1948     Ni1955   1.952       .  S
O1948      C1958   1.288       .  A
O1949     Ni1955   1.894       .  S
O1949      C1959   1.271       .  A
O1950     Ni3971   1.874       .  S
O1950      C1960   1.270       .  A
O1951     Ni1956   1.951       .  S
O1951      C3976   1.288   1_455  A
O1952     Ni1956   1.941       .  S
O1952      C1959   1.290       .  A
O1953     Ni1956   1.870       .  S
O1953      C1958   1.269       .  A
O1954     Ni1956   1.881       .  S
O1954      C3973   1.269   1_455  A
Ni1955     O3963   1.978   1_455  S
Ni1955     O3966   1.874   1_455  S
Ni1955    Ni1956   2.390       .  S
C1957      O3970   1.269       .  A
C1959      C1988   1.468       .  S
C1960      O3967   1.288       .  A
O1961     Ni1969   1.978       .  S
O1961      C1971   1.296       .  A
O1962     Ni1969   1.952       .  S
O1962      C1972   1.288       .  A
O1963     Ni1969   1.874       .  S
O1963      C1973   1.270       .  A
O1964     Ni1969   1.894       .  S
O1964      C1974   1.271       .  A
O1965     Ni1970   1.941       .  S
O1965      C1974   1.290       .  A
O1966     Ni1970   1.951       .  S
O1966      C1973   1.288       .  A
O1967     Ni1970   1.870       .  S
O1967      C1972   1.269       .  A
O1968     Ni1970   1.881       .  S
O1968      C1971   1.269       .  A
Ni1969    Ni1970   2.390       .  S
C1974      C2001   1.468       .  S
O1975     Ni1983   1.978       .  S
O1975      C1985   1.296       .  A
O1976     Ni1983   1.952       .  S
O1976      C1986   1.288       .  A
O1977     Ni1983   1.874       .  S
O1977      C1987   1.270       .  A
O1978     Ni1983   1.894       .  S
O1978      C1988   1.271       .  A
O1979     Ni1984   1.941       .  S
O1979      C1988   1.290       .  A
O1980     Ni1984   1.951       .  S
O1980      C1987   1.288       .  A
O1981     Ni1984   1.870       .  S
O1981      C1986   1.269       .  A
O1982     Ni1984   1.881       .  S
O1982      C1985   1.269       .  A
Ni1983    Ni1984   2.390       .  S
O1989     Ni1997   1.978       .  S
O1989      C1999   1.296       .  A
O1990     Ni1997   1.952       .  S
O1990      C2000   1.288       .  A
O1991     Ni1997   1.894       .  S
O1991      C2001   1.271       .  A
O1992     Ni1997   1.874       .  S
O1992      C2002   1.270       .  A
O1994     Ni1998   1.941       .  S
O1994      C2001   1.290       .  A
O1995     Ni1998   1.870       .  S
O1995      C2000   1.269       .  A
O1996     Ni1998   1.881       .  S
O1996      C1999   1.269       .  A
Ni1997    Ni1998   2.390       .  S
C1999      C2013   1.474       .  S
O2003     Ni2011   1.978       .  S
O2003      C2013   1.296       .  A
O2004     Ni2011   1.952       .  S
O2004      C2014   1.288       .  A
O2005     Ni2011   1.894       .  S
O2005      C2015   1.271       .  A
O2006     Ni2011   1.874       .  S
O2006      C2016   1.270       .  A
O2007     Ni2012   1.951       .  S
O2007      C2016   1.288       .  A
O2008     Ni2012   1.941       .  S
O2008      C2015   1.290       .  A
O2009     Ni2012   1.870       .  S
O2009      C2014   1.269       .  A
O2010     Ni2012   1.881       .  S
O2010      C2013   1.269       .  A
Ni2011    Ni2012   2.390       .  S
O2017     Ni2025   1.978       .  S
O2017      C2027   1.296       .  A
O2018     Ni2025   1.952       .  S
O2018      C2028   1.288       .  A
O2019     Ni2025   1.894       .  S
O2019      C2029   1.271       .  A
O2020     Ni2025   1.874       .  S
O2020      C3038   1.270       .  A
O2021     Ni2026   1.951       .  S
O2021      C3038   1.288       .  A
O2022     Ni2026   1.941       .  S
O2022      C2029   1.290       .  A
O2023     Ni2026   1.870       .  S
O2023      C2028   1.269       .  A
O2024     Ni2026   1.881       .  S
O2024      C2027   1.269       .  A
Ni2025    Ni2026   2.390       .  S
C2027      C3049   1.474       .  S
C2028      C2295   1.449       .  S
C2029      C2156   1.468       .  S
C2030      O3028   1.270       .  A
C2030      O3029   1.288       .  A
C2030      C2420   1.449   1_565  S
O2031     Ni2039   1.978       .  S
O2031      C2041   1.296       .  A
O2032     Ni2039   1.952       .  S
O2032      C2042   1.288       .  A
O2033     Ni2039   1.894       .  S
O2033      C2043   1.271       .  A
O2034     Ni2039   1.874       .  S
O2034      C2044   1.270       .  A
O2035     Ni2040   1.951       .  S
O2035      C2044   1.288       .  A
O2036     Ni3048   1.941       .  S
O2036      C3051   1.290       .  A
O2037     Ni2040   1.870       .  S
O2037      C2042   1.269       .  A
O2038     Ni2040   1.881   1_565  S
O2038      C2041   1.269   1_565  A
Ni2039    Ni2040   2.390       .  S
Ni2040     O3044   1.941   1_545  S
C2041      C3035   1.474   1_545  S
C2042      C2477   1.449       .  S
C2043      O3044   1.290   1_545  A
C2043      C3108   1.468   1_545  S
C2044      C2224   1.449       .  S
O2045      C2055   1.296       .  A
O2046     Ni2053   1.952       .  S
O2046      C2056   1.288       .  A
O2047      C2561   1.270       .  A
O2048     Ni2053   1.894       .  S
O2048      C2058   1.271       .  A
O2049     Ni2054   1.941       .  S
O2049      C2058   1.290       .  A
O2050     Ni2558   1.951   1_554  S
O2051     Ni2054   1.870       .  S
O2051      C2056   1.269       .  A
O2052     Ni2054   1.881       .  S
Ni2053    Ni2054   2.390       .  S
Ni2054     O2554   1.951       .  S
C2055      C2069   1.474       .  S
C2056      C3010   1.449       .  S
C2057      O2551   1.270   1_554  A
C2057      C2210   1.449       .  S
C2058      C2127   1.468       .  S
O2059     Ni2067   1.978       .  S
O2059      C2069   1.296       .  A
O2060     Ni2067   1.952       .  S
O2060      C2070   1.288       .  A
O2061     Ni2067   1.874       .  S
O2061      C2071   1.270       .  A
O2062     Ni2067   1.894       .  S
O2062      C2072   1.271       .  A
O2063     Ni2068   1.941       .  S
O2063      C2072   1.290       .  A
O2064     Ni2068   1.951       .  S
O2064      C2071   1.288       .  A
O2065     Ni2068   1.870       .  S
O2065      C2070   1.269       .  A
O2066     Ni2068   1.881       .  S
O2066      C2069   1.269       .  A
Ni2067    Ni2068   2.390       .  S
C2070      C2310   1.449       .  S
C2071      C2392   1.449       .  S
O2073     Ni3089   1.978       .  S
O2073      C2083   1.296       .  A
O2074     Ni2081   1.952       .  S
O2074      C2084   1.288       .  A
O2075     Ni3089   1.874       .  S
O2075      C2085   1.270       .  A
O2076     Ni2081   1.894       .  S
O2076      C2086   1.271       .  A
O2077     Ni2082   1.941       .  S
O2077      C2086   1.290       .  A
O2078     Ni2082   1.951       .  S
O2078      C3093   1.288   1_545  A
O2079     Ni2082   1.870       .  S
O2079      C2084   1.269       .  A
O2080     Ni2082   1.881       .  S
O2080      C3091   1.269   1_545  A
Ni2081     O3081   1.978   1_545  S
Ni2081     O3083   1.874   1_545  S
Ni2081    Ni2082   2.390       .  S
C2083      O3088   1.269       .  A
C2083      C2097   1.474       .  S
C2084      C2254   1.449       .  S
C2085      O3086   1.288       .  A
C2085      C2462   1.449       .  S
C2086      C2113   1.468       .  S
O2087     Ni2095   1.978       .  S
O2087      C2097   1.296       .  A
O2088     Ni2095   1.952       .  S
O2088      C2098   1.288       .  A
O2089     Ni2095   1.874       .  S
O2089      C2099   1.270       .  A
O2090     Ni2095   1.894       .  S
O2090      C2100   1.271       .  A
O2091     Ni2096   1.941       .  S
O2091      C2100   1.290       .  A
O2092     Ni2096   1.951       .  S
O2092      C2099   1.288       .  A
O2093     Ni2096   1.870       .  S
O2093      C2098   1.269       .  A
O2094     Ni2096   1.881       .  S
O2094      C2097   1.269       .  A
Ni2095    Ni2096   2.390       .  S
C2098      C2408   1.449       .  S
C2099      C2322   1.449       .  S
C2100      C3051   1.468       .  S
O2101     Ni2109   1.978       .  S
O2101      C2111   1.296       .  A
O2102     Ni2109   1.952       .  S
O2102      C2112   1.288       .  A
O2103     Ni2109   1.894       .  S
O2103      C2113   1.271       .  A
O2104     Ni2109   1.874       .  S
O2104      C2114   1.270       .  A
O2105     Ni2110   1.951       .  S
O2105      C2114   1.288       .  A
O2106     Ni2110   1.941       .  S
O2106      C2113   1.290       .  A
O2107     Ni2110   1.870       .  S
O2107      C2112   1.269       .  A
O2108     Ni2110   1.881       .  S
O2108      C2111   1.269       .  A
Ni2109    Ni2110   2.390       .  S
C2111      C2125   1.474       .  S
C2112      C2337   1.449       .  S
C2114      C2364   1.449       .  S
O2115     Ni2123   1.978       .  S
O2115      C2125   1.296       .  A
O2116     Ni2123   1.952       .  S
O2116      C2126   1.288       .  A
O2117     Ni2123   1.894       .  S
O2117      C2127   1.271       .  A
O2118     Ni2123   1.874       .  S
O2118      C2128   1.270       .  A
O2119     Ni2124   1.951       .  S
O2119      C2128   1.288       .  A
O2120     Ni2124   1.941       .  S
O2120      C2127   1.290       .  A
O2121     Ni2124   1.870       .  S
O2121      C2126   1.269       .  A
O2122     Ni2124   1.881       .  S
O2122      C2125   1.269       .  A
Ni2123    Ni2124   2.390       .  S
C2126      C2435   1.449       .  S
C2128      C2280   1.449       .  S
O2129     Ni2137   1.978       .  S
O2129      C2139   1.296       .  A
O2130     Ni2137   1.952       .  S
O2130      C2140   1.288       .  A
O2131     Ni2137   1.874       .  S
O2131      C2141   1.270       .  A
O2132     Ni2137   1.894       .  S
O2132      C2142   1.271       .  A
O2133     Ni2138   1.941       .  S
O2133      C2142   1.290       .  A
O2134     Ni2138   1.951       .  S
O2134      C2141   1.288       .  A
O2135     Ni2138   1.870       .  S
O2135      C2140   1.269       .  A
O2136     Ni2138   1.881       .  S
O2136      C2139   1.269       .  A
Ni2137    Ni2138   2.390       .  S
C2139      C2153   1.474       .  S
C2140      C2450   1.449       .  S
C2141      C2266   1.449       .  S
C2142      C2183   1.468       .  S
O2143     Ni2151   1.978       .  S
O2143      C2153   1.296       .  A
O2144     Ni2151   1.952       .  S
O2144      C2154   1.288       .  A
O2145     Ni2151   1.874       .  S
O2145      C2155   1.270       .  A
O2146     Ni2151   1.894       .  S
O2146      C2156   1.271       .  A
O2147     Ni2152   1.941       .  S
O2147      C2156   1.290       .  A
O2148     Ni2152   1.951       .  S
O2148      C2155   1.288       .  A
O2149     Ni2152   1.870       .  S
O2149      C2154   1.269       .  A
O2150     Ni2152   1.881       .  S
O2150      C2153   1.269       .  A
Ni2151    Ni2152   2.390       .  S
C2154      C2198   1.449       .  S
C2155      C2518   1.449       .  S
O2157     Ni2165   1.978       .  S
O2157      C2167   1.296       .  A
O2158     Ni2165   1.952       .  S
O2158      C2168   1.288       .  A
O2159     Ni2165   1.894       .  S
O2159      C2169   1.271       .  A
O2160     Ni2165   1.874       .  S
O2160      C2170   1.270       .  A
O2161     Ni2166   1.951       .  S
O2161      C2170   1.288       .  A
O2163     Ni2166   1.870       .  S
O2163      C2168   1.269       .  A
O2164     Ni2166   1.881       .  S
O2164      C2167   1.269       .  A
Ni2165    Ni2166   2.390       .  S
C2168      C2239   1.449       .  S
C2170      C2490   1.449       .  S
O2171     Ni2179   1.978       .  S
O2171      C2181   1.296       .  A
O2172     Ni2179   1.952       .  S
O2172      C2182   1.288       .  A
O2173     Ni2179   1.894       .  S
O2173      C2183   1.271       .  A
O2174     Ni2179   1.874       .  S
O2175     Ni2684   1.951       .  S
O2176     Ni2180   1.941       .  S
O2176      C2183   1.290       .  A
O2177     Ni2180   1.870       .  S
O2177      C2182   1.269       .  A
O2178     Ni2180   1.881       .  S
O2178      C2181   1.269       .  A
Ni2179    Ni2180   2.390       .  S
Ni2180     O2679   1.951   1_554  S
C2182      C2379   1.449       .  S
C2184      C2854   1.449       .  S
O2185     Ni2193   1.978       .  S
O2185      C2195   1.296       .  A
O2186     Ni2193   1.952       .  S
O2186      C2196   1.288       .  A
O2187     Ni2193   1.894       .  S
O2187      C2197   1.271       .  A
O2188     Ni2193   1.874       .  S
O2188      C2198   1.270       .  A
O2189     Ni2194   1.951       .  S
O2189      C2198   1.288       .  A
O2190     Ni2194   1.941       .  S
O2190      C2197   1.290       .  A
O2191     Ni2194   1.870       .  S
O2191      C2196   1.269       .  A
O2192     Ni2194   1.881       .  S
O2192      C2195   1.269       .  A
Ni2193    Ni2194   2.390       .  S
C2195      C2209   1.474       .  S
C2196      C2491   1.449       .  S
C2197      C3850   1.468   1_554  S
O2199     Ni3215   1.978       .  S
O2199      C2209   1.296       .  A
O2200     Ni2207   1.952       .  S
O2200      C2210   1.288       .  A
O2201     Ni2207   1.894       .  S
O2201      C2211   1.271       .  A
O2202     Ni3215   1.874       .  S
O2202      C2212   1.270   1_554  A
O2203     Ni2712   1.951       .  S
O2203      C3724   1.288   1_545  A
O2204     Ni2208   1.941       .  S
O2204      C2211   1.290       .  A
O2205     Ni2208   1.870       .  S
O2205      C2210   1.269       .  A
O2206     Ni2208   1.881       .  S
O2206      C3217   1.269   1_545  A
Ni2207     O3207   1.978   1_545  S
Ni2207     O3210   1.874   1_545  S
Ni2207    Ni2208   2.390       .  S
Ni2208     O2707   1.951   1_554  S
C2209      O3214   1.269       .  A
C2211      C2226   1.468       .  S
C2212      O3715   1.288       .  A
C2212      C2882   1.449       .  S
O2213     Ni2221   1.978       .  S
O2213      C2223   1.296       .  A
O2214     Ni2221   1.952       .  S
O2214      C2224   1.288       .  A
O2215     Ni2221   1.874       .  S
O2215      C2225   1.270       .  A
O2216     Ni2221   1.894       .  S
O2216      C2226   1.271       .  A
O2217     Ni2222   1.941       .  S
O2217      C2226   1.290       .  A
O2218     Ni2222   1.951       .  S
O2218      C2225   1.288       .  A
O2219     Ni2222   1.870       .  S
O2219      C2224   1.269       .  A
O2220     Ni2222   1.881       .  S
O2220      C2223   1.269       .  A
Ni2221    Ni2222   2.390       .  S
C2225      C2448   1.449       .  S
O2227     Ni2235   1.978       .  S
O2227      C2237   1.296       .  A
O2228     Ni2235   1.952       .  S
O2228      C2238   1.288       .  A
O2229     Ni2235   1.874       .  S
O2229      C2239   1.270       .  A
O2230     Ni2235   1.894       .  S
O2230      C2240   1.271       .  A
O2231     Ni2236   1.941       .  S
O2231      C2240   1.290       .  A
O2232     Ni2236   1.951       .  S
O2232      C2239   1.288       .  A
O2233     Ni2236   1.870       .  S
O2233      C2238   1.269       .  A
O2234     Ni2236   1.881       .  S
O2234      C2237   1.269       .  A
Ni2235    Ni2236   2.390       .  S
C2238      C2520   1.449       .  S
C2240      C2253   1.468       .  S
O2241     Ni2249   1.978       .  S
O2241      C2251   1.296       .  A
O2242     Ni2249   1.952       .  S
O2242      C2252   1.288       .  A
O2243     Ni2249   1.894       .  S
O2243      C2253   1.271       .  A
O2244     Ni2249   1.874       .  S
O2244      C2254   1.270       .  A
O2245     Ni2250   1.951       .  S
O2245      C2254   1.288       .  A
O2246     Ni2250   1.941       .  S
O2246      C2253   1.290       .  A
O2247     Ni2250   1.870       .  S
O2247      C2252   1.269       .  A
O2248     Ni2250   1.881       .  S
O2248      C2251   1.269       .  A
Ni2249    Ni2250   2.390       .  S
C2251      C2265   1.474       .  S
C2252      C2421   1.449       .  S
O2255     Ni2263   1.978       .  S
O2255      C2265   1.296       .  A
O2256     Ni2263   1.952       .  S
O2256      C2266   1.288       .  A
O2257     Ni2263   1.894       .  S
O2257      C2267   1.271       .  A
O2258     Ni2263   1.874       .  S
O2258      C2268   1.270       .  A
O2259     Ni2264   1.951       .  S
O2259      C2268   1.288       .  A
O2260     Ni2264   1.941       .  S
O2260      C2267   1.290       .  A
O2261     Ni2264   1.870       .  S
O2261      C2266   1.269       .  A
O2262     Ni2264   1.881       .  S
O2262      C2265   1.269       .  A
Ni2263    Ni2264   2.390       .  S
C2267      C2282   1.468       .  S
C2268      C2476   1.449       .  S
O2269     Ni2277   1.978       .  S
O2269      C2279   1.296       .  A
O2270     Ni2277   1.952       .  S
O2270      C2280   1.288       .  A
O2271     Ni2277   1.874       .  S
O2271      C2281   1.270       .  A
O2272     Ni2277   1.894       .  S
O2272      C2282   1.271       .  A
O2273     Ni2278   1.941       .  S
O2273      C2282   1.290       .  A
O2274     Ni2278   1.951       .  S
O2274      C2281   1.288       .  A
O2275     Ni2278   1.870       .  S
O2275      C2280   1.269       .  A
O2276     Ni2278   1.881       .  S
O2276      C2279   1.269       .  A
Ni2277    Ni2278   2.390       .  S
C2279      C2293   1.474       .  S
C2281      C2406   1.449       .  S
O2283     Ni2291   1.978       .  S
O2283      C2293   1.296       .  A
O2284     Ni2291   1.952       .  S
O2284      C2294   1.288       .  A
O2285     Ni2291   1.874       .  S
O2285      C2295   1.270       .  A
O2286     Ni2291   1.894       .  S
O2286      C2296   1.271       .  A
O2287     Ni2292   1.941       .  S
O2287      C2296   1.290       .  A
O2288     Ni2292   1.951       .  S
O2288      C2295   1.288       .  A
O2289     Ni2292   1.870       .  S
O2289      C2294   1.269       .  A
O2290     Ni2292   1.881       .  S
O2290      C2293   1.269       .  A
Ni2291    Ni2292   2.390       .  S
C2294      C2464   1.449       .  S
C2296      C2309   1.468       .  S
O2297     Ni2305   1.978       .  S
O2297      C2307   1.296       .  A
O2298     Ni2305   1.952       .  S
O2298      C2308   1.288       .  A
O2299     Ni2305   1.894       .  S
O2299      C2309   1.271       .  A
O2300     Ni2305   1.874       .  S
O2300      C2310   1.270       .  A
O2301     Ni2306   1.951       .  S
O2301      C2310   1.288       .  A
O2302     Ni2306   1.941       .  S
O2302      C2309   1.290       .  A
O2303     Ni2306   1.870       .  S
O2303      C2308   1.269       .  A
O2304     Ni2306   1.881       .  S
O2304      C2307   1.269       .  A
Ni2305    Ni2306   2.390       .  S
C2308      C2365   1.449       .  S
O2311     Ni2319   1.978       .  S
O2311      C2321   1.296       .  A
O2312     Ni2319   1.952       .  S
O2312      C2322   1.288       .  A
O2313     Ni2319   1.894       .  S
O2313      C2323   1.271       .  A
O2314     Ni2319   1.874       .  S
O2314      C2324   1.270       .  A
O2315     Ni2320   1.951       .  S
O2315      C2324   1.288       .  A
O2316     Ni2320   1.941       .  S
O2316      C2323   1.290       .  A
O2317     Ni2320   1.870       .  S
O2317      C2322   1.269       .  A
O2318     Ni2320   1.881       .  S
O2318      C2321   1.269       .  A
Ni2319    Ni2320   2.390       .  S
C2323      C2352   1.468       .  S
C2324      C2434   1.449       .  S
O2325     Ni2333   1.978       .  S
O2325      C2335   1.296       .  A
O2326     Ni2333   1.952       .  S
O2326      C2336   1.288       .  A
O2327     Ni2333   1.874       .  S
O2327      C2337   1.270       .  A
O2328     Ni2333   1.894       .  S
O2328      C2338   1.271       .  A
O2329     Ni3342   1.941       .  S
O2329      C3346   1.290       .  A
O2330     Ni2334   1.951       .  S
O2330      C2337   1.288       .  A
O2331     Ni2334   1.870       .  S
O2331      C2336   1.269       .  A
O2332     Ni2334   1.881   1_565  S
O2332      C2335   1.269   1_565  A
Ni2333    Ni2334   2.390       .  S
Ni2334     O3337   1.941   1_545  S
C2335      C3357   1.474   1_545  S
C2336      C2394   1.449       .  S
C2338      O3337   1.290   1_545  A
C2338      C3709   1.468   1_545  S
O2339     Ni2347   1.978       .  S
O2339      C2349   1.296       .  A
O2340     Ni2347   1.952       .  S
O2340      C2350   1.288       .  A
O2341     Ni2347   1.874       .  S
O2341      C3863   1.270       .  A
O2342     Ni2347   1.894       .  S
O2342      C2352   1.271       .  A
O2343     Ni2348   1.941       .  S
O2343      C2352   1.290       .  A
O2344     Ni2852   1.951   1_554  S
O2344      C3359   1.288       .  A
O2345     Ni2348   1.870       .  S
O2345      C2350   1.269       .  A
O2346     Ni2348   1.881       .  S
O2346      C2349   1.269       .  A
Ni2347    Ni2348   2.390       .  S
Ni2348     O2848   1.951       .  S
C2349      C3343   1.474       .  S
C2350      C2688   1.449       .  S
C2351      O3853   1.270   1_554  A
C2351      O3352   1.288       .  A
C2351      C2504   1.449   1_565  S
O2353     Ni2361   1.978       .  S
O2353      C2363   1.296       .  A
O2354     Ni2361   1.952       .  S
O2354      C2364   1.288       .  A
O2355     Ni2361   1.874       .  S
O2355      C2365   1.270       .  A
O2356     Ni2361   1.894       .  S
O2356      C2366   1.271       .  A
O2357     Ni2362   1.941       .  S
O2357      C2366   1.290       .  A
O2358     Ni2362   1.951       .  S
O2358      C2365   1.288       .  A
O2359     Ni2362   1.870       .  S
O2359      C2364   1.269       .  A
O2360     Ni2362   1.881       .  S
O2360      C2363   1.269       .  A
Ni2361    Ni2362   2.390       .  S
C2363      C2377   1.474       .  S
C2366      C3023   1.468       .  S
O2367     Ni2375   1.978       .  S
O2367      C2377   1.296       .  A
O2368     Ni2375   1.952       .  S
O2368      C2378   1.288       .  A
O2369     Ni2375   1.874       .  S
O2369      C2883   1.270       .  A
O2370     Ni2375   1.894       .  S
O2370      C2380   1.271       .  A
O2371     Ni2376   1.941       .  S
O2371      C2380   1.290       .  A
O2372     Ni2880   1.951   1_554  S
O2372      C2379   1.288       .  A
O2373     Ni2376   1.870       .  S
O2373      C2378   1.269       .  A
O2374     Ni2376   1.881       .  S
O2374      C2377   1.269       .  A
Ni2375    Ni2376   2.390       .  S
Ni2376     O2876   1.951       .  S
C2378      C2716   1.449       .  S
C2379      O2873   1.270   1_554  A
C2380      C2407   1.468       .  S
O2381     Ni2389   1.978       .  S
O2381      C2391   1.296       .  A
O2382     Ni2389   1.952       .  S
O2382      C2392   1.288       .  A
O2383     Ni2389   1.894       .  S
O2383      C2393   1.271       .  A
O2384     Ni2389   1.874       .  S
O2384      C2394   1.270       .  A
O2385     Ni2390   1.951       .  S
O2385      C2394   1.288       .  A
O2386     Ni2390   1.941       .  S
O2386      C2393   1.290       .  A
O2387     Ni2390   1.870       .  S
O2387      C2392   1.269       .  A
O2388     Ni2390   1.881       .  S
O2388      C2391   1.269       .  A
Ni2389    Ni2390   2.390       .  S
C2391      C3413   1.474   1_545  S
C2393      C2422   1.468       .  S
O2395     Ni2403   1.978       .  S
O2395      C2405   1.296       .  A
O2396     Ni2403   1.952       .  S
O2396      C2406   1.288       .  A
O2397     Ni2403   1.894       .  S
O2397      C2407   1.271       .  A
O2398     Ni2403   1.874       .  S
O2398      C2408   1.270       .  A
O2399     Ni2404   1.951       .  S
O2399      C2408   1.288       .  A
O2400     Ni2404   1.941       .  S
O2400      C2407   1.290       .  A
O2401     Ni2404   1.870       .  S
O2401      C2406   1.269       .  A
O2402     Ni2404   1.881       .  S
O2402      C2405   1.269       .  A
Ni2403    Ni2404   2.390       .  S
C2405      C3399   1.474       .  S
O2409     Ni2417   1.978       .  S
O2409      C2419   1.296       .  A
O2410     Ni2417   1.952       .  S
O2410      C2420   1.288       .  A
O2411     Ni2417   1.874       .  S
O2412     Ni2417   1.894       .  S
O2412      C2422   1.271       .  A
O2413     Ni2418   1.941       .  S
O2413      C2422   1.290       .  A
O2414     Ni2418   1.951       .  S
O2415     Ni2418   1.870       .  S
O2415      C2420   1.269       .  A
O2416     Ni2418   1.881       .  S
O2416      C2419   1.269       .  A
Ni2417    Ni2418   2.390       .  S
O2423     Ni2431   1.978       .  S
O2423      C2433   1.296       .  A
O2424     Ni2431   1.952       .  S
O2424      C2434   1.288       .  A
O2425     Ni2431   1.874       .  S
O2425      C2435   1.270       .  A
O2426     Ni2431   1.894       .  S
O2426      C2436   1.271       .  A
O2428     Ni2432   1.951       .  S
O2428      C2435   1.288       .  A
O2429     Ni2432   1.870       .  S
O2429      C2434   1.269       .  A
O2430     Ni2432   1.881       .  S
O2430      C2433   1.269       .  A
Ni2431    Ni2432   2.390       .  S
O2437     Ni2445   1.978       .  S
O2437      C2447   1.296       .  A
O2438     Ni2445   1.952       .  S
O2438      C2448   1.288       .  A
O2439     Ni2445   1.894       .  S
O2439      C2449   1.271       .  A
O2440     Ni2445   1.874       .  S
O2440      C2450   1.270       .  A
O2441     Ni2446   1.951       .  S
O2441      C2450   1.288       .  A
O2442     Ni2446   1.941       .  S
O2442      C2449   1.290       .  A
O2443     Ni2446   1.870       .  S
O2443      C2448   1.269       .  A
O2444     Ni2446   1.881       .  S
O2444      C2447   1.269       .  A
Ni2445    Ni2446   2.390       .  S
C2447      C2461   1.474       .  S
O2451      C2461   1.296       .  A
O2452     Ni2459   1.952       .  S
O2452      C2462   1.288       .  A
O2453     Ni2459   1.894       .  S
O2453      C2463   1.271       .  A
O2454      C2464   1.270       .  A
O2455     Ni2460   1.951       .  S
O2456     Ni2460   1.941       .  S
O2456      C2463   1.290       .  A
O2457     Ni2460   1.870       .  S
O2457      C2462   1.269       .  A
O2458     Ni2460   1.881       .  S
Ni2459    Ni2460   2.390       .  S
C2463      C2492   1.468       .  S
O2465     Ni2473   1.978       .  S
O2465      C2475   1.296       .  A
O2466     Ni2473   1.952       .  S
O2466      C2476   1.288       .  A
O2467     Ni2473   1.874       .  S
O2467      C2477   1.270       .  A
O2468     Ni2473   1.894       .  S
O2468      C2478   1.271       .  A
O2469     Ni2474   1.941       .  S
O2469      C2478   1.290       .  A
O2470     Ni2474   1.951       .  S
O2470      C2477   1.288       .  A
O2471     Ni2474   1.870       .  S
O2471      C2476   1.269       .  A
O2472     Ni2474   1.881       .  S
O2472      C2475   1.269       .  A
Ni2473    Ni2474   2.390       .  S
C2475      C3497   1.474   1_545  S
C2478      C2505   1.468       .  S
O2479     Ni2487   1.978       .  S
O2479      C2489   1.296       .  A
O2480     Ni2487   1.952       .  S
O2480      C2490   1.288       .  A
O2481     Ni2487   1.874       .  S
O2481      C2491   1.270       .  A
O2482     Ni2487   1.894       .  S
O2482      C2492   1.271       .  A
O2483     Ni2488   1.941       .  S
O2483      C2492   1.290       .  A
O2484     Ni2488   1.951       .  S
O2484      C2491   1.288       .  A
O2485     Ni2488   1.870       .  S
O2485      C2490   1.269       .  A
O2486     Ni2488   1.881       .  S
O2486      C2489   1.269       .  A
Ni2487    Ni2488   2.390       .  S
C2489      C3483   1.474       .  S
O2493     Ni2501   1.978       .  S
O2493      C2503   1.296       .  A
O2494     Ni2501   1.952       .  S
O2494      C2504   1.288       .  A
O2495     Ni2501   1.894       .  S
O2495      C2505   1.271       .  A
O2496     Ni2501   1.874       .  S
O2496      C2506   1.270   1_554  A
O2497     Ni3006   1.951       .  S
O2497      C3010   1.288       .  A
O2498     Ni2502   1.941       .  S
O2498      C2505   1.290       .  A
O2499     Ni2502   1.870       .  S
O2499      C2504   1.269       .  A
O2500     Ni2502   1.881       .  S
O2500      C2503   1.269       .  A
Ni2501    Ni2502   2.390       .  S
Ni2502     O3001   1.951   1_554  S
C2503      C2517   1.474       .  S
C2506      O3001   1.288       .  A
C2506      C2560   1.449       .  S
O2507     Ni2515   1.978       .  S
O2507      C2517   1.296       .  A
O2508     Ni2515   1.952       .  S
O2508      C2518   1.288       .  A
O2509     Ni2515   1.894       .  S
O2509      C2519   1.271       .  A
O2510     Ni2515   1.874       .  S
O2510      C2520   1.270       .  A
O2511     Ni2516   1.951       .  S
O2511      C2520   1.288       .  A
O2512     Ni2516   1.941       .  S
O2512      C2519   1.290       .  A
O2513     Ni2516   1.870       .  S
O2513      C2518   1.269       .  A
O2514     Ni2516   1.881       .  S
O2514      C2517   1.269       .  A
Ni2515    Ni2516   2.390       .  S
C2519      C2870   1.468   1_554  S
O2521     Ni2529   1.978       .  S
O2521      C2531   1.296       .  A
O2522     Ni2529   1.952       .  S
O2522      C2532   1.288       .  A
O2523     Ni2529   1.894       .  S
O2523      C2533   1.271       .  A
O2524     Ni2529   1.874       .  S
O2524      C3542   1.270       .  A
O2525     Ni2530   1.951       .  S
O2525      C3542   1.288       .  A
O2526     Ni2530   1.941       .  S
O2526      C2533   1.290       .  A
O2527     Ni2530   1.870       .  S
O2527      C2532   1.269       .  A
O2528     Ni2530   1.881       .  S
O2528      C2531   1.269       .  A
Ni2529    Ni2530   2.390       .  S
C2531      C3553   1.474       .  S
C2532      C2799   1.449       .  S
C2533      C2660   1.468       .  S
C2534      O3532   1.270       .  A
C2534      O3533   1.288       .  A
C2534      C2924   1.449   1_565  S
O2535     Ni2543   1.978       .  S
O2535      C2545   1.296       .  A
O2536     Ni2543   1.952       .  S
O2536      C2546   1.288       .  A
O2537     Ni2543   1.894       .  S
O2537      C2547   1.271       .  A
O2538     Ni2543   1.874       .  S
O2538      C2548   1.270       .  A
O2539     Ni2544   1.951       .  S
O2539      C2548   1.288       .  A
O2540     Ni3552   1.941       .  S
O2540      C3555   1.290       .  A
O2541     Ni2544   1.870       .  S
O2541      C2546   1.269       .  A
O2542     Ni2544   1.881   1_565  S
O2542      C2545   1.269   1_565  A
Ni2543    Ni2544   2.390       .  S
Ni2544     O3548   1.941   1_545  S
C2545      C3539   1.474   1_545  S
C2546      C2981   1.449       .  S
C2547      O3548   1.290   1_545  A
C2547      C3612   1.468   1_545  S
C2548      C2728   1.449       .  S
O2549      C2559   1.296       .  A
O2550     Ni2557   1.952       .  S
O2550      C2560   1.288       .  A
O2552     Ni2557   1.894       .  S
O2552      C2562   1.271       .  A
O2553     Ni2558   1.941       .  S
O2553      C2562   1.290       .  A
O2555     Ni2558   1.870       .  S
O2555      C2560   1.269       .  A
O2556     Ni2558   1.881       .  S
Ni2557    Ni2558   2.390       .  S
C2559      C2573   1.474       .  S
C2561      C2714   1.449       .  S
C2562      C2631   1.468       .  S
O2563     Ni2571   1.978       .  S
O2563      C2573   1.296       .  A
O2564     Ni2571   1.952       .  S
O2564      C2574   1.288       .  A
O2565     Ni2571   1.874       .  S
O2565      C2575   1.270       .  A
O2566     Ni2571   1.894       .  S
O2566      C2576   1.271       .  A
O2567     Ni2572   1.941       .  S
O2567      C2576   1.290       .  A
O2568     Ni2572   1.951       .  S
O2568      C2575   1.288       .  A
O2569     Ni2572   1.870       .  S
O2569      C2574   1.269       .  A
O2570     Ni2572   1.881       .  S
O2570      C2573   1.269       .  A
Ni2571    Ni2572   2.390       .  S
C2574      C2814   1.449       .  S
C2575      C2896   1.449       .  S
O2577     Ni3593   1.978       .  S
O2577      C2587   1.296       .  A
O2578     Ni2585   1.952       .  S
O2578      C2588   1.288       .  A
O2579     Ni3593   1.874       .  S
O2579      C2589   1.270       .  A
O2580     Ni2585   1.894       .  S
O2580      C2590   1.271       .  A
O2581     Ni2586   1.941       .  S
O2581      C2590   1.290       .  A
O2582     Ni2586   1.951       .  S
O2582      C3597   1.288   1_545  A
O2583     Ni2586   1.870       .  S
O2583      C2588   1.269       .  A
O2584     Ni2586   1.881       .  S
O2584      C3595   1.269   1_545  A
Ni2585     O3585   1.978   1_545  S
Ni2585     O3587   1.874   1_545  S
Ni2585    Ni2586   2.390       .  S
C2587      O3592   1.269       .  A
C2587      C2601   1.474       .  S
C2588      C2758   1.449       .  S
C2589      O3590   1.288       .  A
C2589      C2966   1.449       .  S
C2590      C2617   1.468       .  S
O2591     Ni2599   1.978       .  S
O2591      C2601   1.296       .  A
O2592     Ni2599   1.952       .  S
O2592      C2602   1.288       .  A
O2593     Ni2599   1.874       .  S
O2593      C2603   1.270       .  A
O2594     Ni2599   1.894       .  S
O2594      C2604   1.271       .  A
O2595     Ni2600   1.941       .  S
O2595      C2604   1.290       .  A
O2596     Ni2600   1.951       .  S
O2596      C2603   1.288       .  A
O2597     Ni2600   1.870       .  S
O2597      C2602   1.269       .  A
O2598     Ni2600   1.881       .  S
O2598      C2601   1.269       .  A
Ni2599    Ni2600   2.390       .  S
C2602      C2912   1.449       .  S
C2603      C2826   1.449       .  S
C2604      C3555   1.468       .  S
O2605     Ni2613   1.978       .  S
O2605      C2615   1.296       .  A
O2606     Ni2613   1.952       .  S
O2606      C2616   1.288       .  A
O2607     Ni2613   1.894       .  S
O2607      C2617   1.271       .  A
O2608     Ni2613   1.874       .  S
O2608      C2618   1.270       .  A
O2609     Ni2614   1.951       .  S
O2609      C2618   1.288       .  A
O2610     Ni2614   1.941       .  S
O2610      C2617   1.290       .  A
O2611     Ni2614   1.870       .  S
O2611      C2616   1.269       .  A
O2612     Ni2614   1.881       .  S
O2612      C2615   1.269       .  A
Ni2613    Ni2614   2.390       .  S
C2615      C2629   1.474       .  S
C2616      C2841   1.449       .  S
C2618      C2868   1.449       .  S
O2619     Ni2627   1.978       .  S
O2619      C2629   1.296       .  A
O2620     Ni2627   1.952       .  S
O2620      C2630   1.288       .  A
O2621     Ni2627   1.894       .  S
O2621      C2631   1.271       .  A
O2622     Ni2627   1.874       .  S
O2622      C2632   1.270       .  A
O2623     Ni2628   1.951       .  S
O2623      C2632   1.288       .  A
O2624     Ni2628   1.941       .  S
O2624      C2631   1.290       .  A
O2625     Ni2628   1.870       .  S
O2625      C2630   1.269       .  A
O2626     Ni2628   1.881       .  S
O2626      C2629   1.269       .  A
Ni2627    Ni2628   2.390       .  S
C2630      C2939   1.449       .  S
C2632      C2784   1.449       .  S
O2633     Ni2641   1.978       .  S
O2633      C2643   1.296       .  A
O2634     Ni2641   1.952       .  S
O2634      C2644   1.288       .  A
O2635     Ni2641   1.874       .  S
O2635      C2645   1.270       .  A
O2636     Ni2641   1.894       .  S
O2636      C2646   1.271       .  A
O2637     Ni2642   1.941       .  S
O2637      C2646   1.290       .  A
O2638     Ni2642   1.951       .  S
O2638      C2645   1.288       .  A
O2639     Ni2642   1.870       .  S
O2639      C2644   1.269       .  A
O2640     Ni2642   1.881       .  S
O2640      C2643   1.269       .  A
Ni2641    Ni2642   2.390       .  S
C2643      C2657   1.474       .  S
C2644      C2954   1.449       .  S
C2645      C2770   1.449       .  S
C2646      C2687   1.468       .  S
O2647     Ni2655   1.978       .  S
O2647      C2657   1.296       .  A
O2648     Ni2655   1.952       .  S
O2648      C2658   1.288       .  A
O2649     Ni2655   1.874       .  S
O2649      C2659   1.270       .  A
O2650     Ni2655   1.894       .  S
O2650      C2660   1.271       .  A
O2651     Ni2656   1.941       .  S
O2651      C2660   1.290       .  A
O2652     Ni2656   1.951       .  S
O2652      C2659   1.288       .  A
O2653     Ni2656   1.870       .  S
O2653      C2658   1.269       .  A
O2654     Ni2656   1.881       .  S
O2654      C2657   1.269       .  A
Ni2655    Ni2656   2.390       .  S
C2658      C2702   1.449       .  S
C2659      C3022   1.449       .  S
O2661     Ni2669   1.978       .  S
O2661      C2671   1.296       .  A
O2662     Ni2669   1.952       .  S
O2662      C2672   1.288       .  A
O2663     Ni2669   1.894       .  S
O2663      C2673   1.271       .  A
O2664     Ni2669   1.874       .  S
O2664      C2674   1.270       .  A
O2665     Ni2670   1.951       .  S
O2665      C2674   1.288       .  A
O2667     Ni2670   1.870       .  S
O2667      C2672   1.269       .  A
O2668     Ni2670   1.881       .  S
O2668      C2671   1.269       .  A
Ni2669    Ni2670   2.390       .  S
C2672      C2743   1.449       .  S
C2674      C2994   1.449       .  S
O2675     Ni2683   1.978       .  S
O2675      C2685   1.296       .  A
O2676     Ni2683   1.952       .  S
O2676      C2686   1.288       .  A
O2677     Ni2683   1.894       .  S
O2677      C2687   1.271       .  A
O2678     Ni2683   1.874       .  S
O2680     Ni2684   1.941       .  S
O2680      C2687   1.290       .  A
O2681     Ni2684   1.870       .  S
O2681      C2686   1.269       .  A
O2682     Ni2684   1.881       .  S
O2682      C2685   1.269       .  A
Ni2683    Ni2684   2.390       .  S
C2686      C2883   1.449       .  S
O2689     Ni2697   1.978       .  S
O2689      C2699   1.296       .  A
O2690     Ni2697   1.952       .  S
O2690      C2700   1.288       .  A
O2691     Ni2697   1.894       .  S
O2691      C2701   1.271       .  A
O2692     Ni2697   1.874       .  S
O2692      C2702   1.270       .  A
O2693     Ni2698   1.951       .  S
O2693      C2702   1.288       .  A
O2694     Ni2698   1.941       .  S
O2694      C2701   1.290       .  A
O2695     Ni2698   1.870       .  S
O2695      C2700   1.269       .  A
O2696     Ni2698   1.881       .  S
O2696      C2699   1.269       .  A
Ni2697    Ni2698   2.390       .  S
C2699      C2713   1.474       .  S
C2700      C2995   1.449       .  S
C2701      C3346   1.468       .  S
O2703     Ni3719   1.978       .  S
O2703      C2713   1.296       .  A
O2704     Ni2711   1.952       .  S
O2704      C2714   1.288       .  A
O2705     Ni2711   1.894       .  S
O2705      C2715   1.271       .  A
O2706     Ni3719   1.874       .  S
O2706      C2716   1.270       .  A
O2707      C3220   1.288   1_545  A
O2708     Ni2712   1.941       .  S
O2708      C2715   1.290       .  A
O2709     Ni2712   1.870       .  S
O2709      C2714   1.269       .  A
O2710     Ni2712   1.881       .  S
O2710      C3721   1.269   1_545  A
Ni2711     O3711   1.978   1_545  S
Ni2711     O3714   1.874   1_545  S
Ni2711    Ni2712   2.390       .  S
C2713      O3718   1.269       .  A
C2715      C2730   1.468       .  S
C2716      O3211   1.288       .  A
O2717     Ni2725   1.978       .  S
O2717      C2727   1.296       .  A
O2718     Ni2725   1.952       .  S
O2718      C2728   1.288       .  A
O2719     Ni2725   1.874       .  S
O2719      C2729   1.270       .  A
O2720     Ni2725   1.894       .  S
O2720      C2730   1.271       .  A
O2721     Ni2726   1.941       .  S
O2721      C2730   1.290       .  A
O2722     Ni2726   1.951       .  S
O2722      C2729   1.288       .  A
O2723     Ni2726   1.870       .  S
O2723      C2728   1.269       .  A
O2724     Ni2726   1.881       .  S
O2724      C2727   1.269       .  A
Ni2725    Ni2726   2.390       .  S
C2729      C2952   1.449       .  S
O2731     Ni2739   1.978       .  S
O2731      C2741   1.296       .  A
O2732     Ni2739   1.952       .  S
O2732      C2742   1.288       .  A
O2733     Ni2739   1.874       .  S
O2733      C2743   1.270       .  A
O2734     Ni2739   1.894       .  S
O2734      C2744   1.271       .  A
O2735     Ni2740   1.941       .  S
O2735      C2744   1.290       .  A
O2736     Ni2740   1.951       .  S
O2736      C2743   1.288       .  A
O2737     Ni2740   1.870       .  S
O2737      C2742   1.269       .  A
O2738     Ni2740   1.881       .  S
O2738      C2741   1.269       .  A
Ni2739    Ni2740   2.390       .  S
C2742      C3024   1.449       .  S
C2744      C2757   1.468       .  S
O2745     Ni2753   1.978       .  S
O2745      C2755   1.296       .  A
O2746     Ni2753   1.952       .  S
O2746      C2756   1.288       .  A
O2747     Ni2753   1.894       .  S
O2747      C2757   1.271       .  A
O2748     Ni2753   1.874       .  S
O2748      C2758   1.270       .  A
O2749     Ni2754   1.951       .  S
O2749      C2758   1.288       .  A
O2750     Ni2754   1.941       .  S
O2750      C2757   1.290       .  A
O2751     Ni2754   1.870       .  S
O2751      C2756   1.269       .  A
O2752     Ni2754   1.881       .  S
O2752      C2755   1.269       .  A
Ni2753    Ni2754   2.390       .  S
C2755      C2769   1.474       .  S
C2756      C2925   1.449       .  S
O2759     Ni2767   1.978       .  S
O2759      C2769   1.296       .  A
O2760     Ni2767   1.952       .  S
O2760      C2770   1.288       .  A
O2761     Ni2767   1.894       .  S
O2761      C2771   1.271       .  A
O2762     Ni2767   1.874       .  S
O2762      C2772   1.270       .  A
O2763     Ni2768   1.951       .  S
O2763      C2772   1.288       .  A
O2764     Ni2768   1.941       .  S
O2764      C2771   1.290       .  A
O2765     Ni2768   1.870       .  S
O2765      C2770   1.269       .  A
O2766     Ni2768   1.881       .  S
O2766      C2769   1.269       .  A
Ni2767    Ni2768   2.390       .  S
C2771      C2786   1.468       .  S
C2772      C2980   1.449       .  S
O2773     Ni2781   1.978       .  S
O2773      C2783   1.296       .  A
O2774     Ni2781   1.952       .  S
O2774      C2784   1.288       .  A
O2775     Ni2781   1.874       .  S
O2775      C2785   1.270       .  A
O2776     Ni2781   1.894       .  S
O2776      C2786   1.271       .  A
O2777     Ni2782   1.941       .  S
O2777      C2786   1.290       .  A
O2778     Ni2782   1.951       .  S
O2778      C2785   1.288       .  A
O2779     Ni2782   1.870       .  S
O2779      C2784   1.269       .  A
O2780     Ni2782   1.881       .  S
O2780      C2783   1.269       .  A
Ni2781    Ni2782   2.390       .  S
C2783      C2797   1.474       .  S
C2785      C2910   1.449       .  S
O2787     Ni2795   1.978       .  S
O2787      C2797   1.296       .  A
O2788     Ni2795   1.952       .  S
O2788      C2798   1.288       .  A
O2789     Ni2795   1.874       .  S
O2789      C2799   1.270       .  A
O2790     Ni2795   1.894       .  S
O2790      C2800   1.271       .  A
O2791     Ni2796   1.941       .  S
O2791      C2800   1.290       .  A
O2792     Ni2796   1.951       .  S
O2792      C2799   1.288       .  A
O2793     Ni2796   1.870       .  S
O2793      C2798   1.269       .  A
O2794     Ni2796   1.881       .  S
O2794      C2797   1.269       .  A
Ni2795    Ni2796   2.390       .  S
C2798      C2968   1.449       .  S
C2800      C2813   1.468       .  S
O2801     Ni2809   1.978       .  S
O2801      C2811   1.296       .  A
O2802     Ni2809   1.952       .  S
O2802      C2812   1.288       .  A
O2803     Ni2809   1.894       .  S
O2803      C2813   1.271       .  A
O2804     Ni2809   1.874       .  S
O2804      C2814   1.270       .  A
O2805     Ni2810   1.951       .  S
O2805      C2814   1.288       .  A
O2806     Ni2810   1.941       .  S
O2806      C2813   1.290       .  A
O2807     Ni2810   1.870       .  S
O2807      C2812   1.269       .  A
O2808     Ni2810   1.881       .  S
O2808      C2811   1.269       .  A
Ni2809    Ni2810   2.390       .  S
C2812      C2869   1.449       .  S
O2815     Ni2823   1.978       .  S
O2815      C2825   1.296       .  A
O2816     Ni2823   1.952       .  S
O2816      C2826   1.288       .  A
O2817     Ni2823   1.894       .  S
O2817      C2827   1.271       .  A
O2818     Ni2823   1.874       .  S
O2818      C2828   1.270       .  A
O2819     Ni2824   1.951       .  S
O2819      C2828   1.288       .  A
O2820     Ni2824   1.941       .  S
O2820      C2827   1.290       .  A
O2821     Ni2824   1.870       .  S
O2821      C2826   1.269       .  A
O2822     Ni2824   1.881       .  S
O2822      C2825   1.269       .  A
Ni2823    Ni2824   2.390       .  S
C2827      C2856   1.468       .  S
C2828      C2938   1.449       .  S
O2829     Ni2837   1.978       .  S
O2829      C2839   1.296       .  A
O2830     Ni2837   1.952       .  S
O2830      C2840   1.288       .  A
O2831     Ni2837   1.874       .  S
O2831      C2841   1.270       .  A
O2832     Ni2837   1.894       .  S
O2832      C2842   1.271       .  A
O2833     Ni3846   1.941       .  S
O2833      C3850   1.290       .  A
O2834     Ni2838   1.951       .  S
O2834      C2841   1.288       .  A
O2835     Ni2838   1.870       .  S
O2835      C2840   1.269       .  A
O2836     Ni2838   1.881   1_565  S
O2836      C2839   1.269   1_565  A
Ni2837    Ni2838   2.390       .  S
Ni2838     O3841   1.941   1_545  S
C2839      C3861   1.474   1_545  S
C2840      C2898   1.449       .  S
C2842      O3841   1.290   1_545  A
C2842      C3205   1.468   1_546  S
O2843     Ni2851   1.978       .  S
O2843      C2853   1.296       .  A
O2844     Ni2851   1.952       .  S
O2844      C2854   1.288       .  A
O2845     Ni2851   1.874       .  S
O2845      C3359   1.270   1_556  A
O2846     Ni2851   1.894       .  S
O2846      C2856   1.271       .  A
O2847     Ni2852   1.941       .  S
O2847      C2856   1.290       .  A
O2848      C3863   1.288       .  A
O2849     Ni2852   1.870       .  S
O2849      C2854   1.269       .  A
O2850     Ni2852   1.881       .  S
O2850      C2853   1.269       .  A
Ni2851    Ni2852   2.390       .  S
C2853      C3847   1.474       .  S
C2855      O3349   1.270       .  A
C2855      O3856   1.288       .  A
C2855      C3008   1.449   1_565  S
O2857     Ni2865   1.978       .  S
O2857      C2867   1.296       .  A
O2858     Ni2865   1.952       .  S
O2858      C2868   1.288       .  A
O2859     Ni2865   1.874       .  S
O2859      C2869   1.270       .  A
O2860     Ni2865   1.894       .  S
O2860      C2870   1.271       .  A
O2861     Ni2866   1.941       .  S
O2861      C2870   1.290       .  A
O2862     Ni2866   1.951       .  S
O2862      C2869   1.288       .  A
O2863     Ni2866   1.870       .  S
O2863      C2868   1.269       .  A
O2864     Ni2866   1.881       .  S
O2864      C2867   1.269       .  A
Ni2865    Ni2866   2.390       .  S
C2867      C2881   1.474       .  S
O2871     Ni2879   1.978       .  S
O2871      C2881   1.296       .  A
O2872     Ni2879   1.952       .  S
O2872      C2882   1.288       .  A
O2873     Ni2879   1.874       .  S
O2874     Ni2879   1.894       .  S
O2874      C2884   1.271       .  A
O2875     Ni2880   1.941       .  S
O2875      C2884   1.290       .  A
O2876      C2883   1.288       .  A
O2877     Ni2880   1.870       .  S
O2877      C2882   1.269       .  A
O2878     Ni2880   1.881       .  S
O2878      C2881   1.269       .  A
Ni2879    Ni2880   2.390       .  S
C2884      C2911   1.468       .  S
O2885     Ni2893   1.978       .  S
O2885      C2895   1.296       .  A
O2886     Ni2893   1.952       .  S
O2886      C2896   1.288       .  A
O2887     Ni2893   1.894       .  S
O2887      C2897   1.271       .  A
O2888     Ni2893   1.874       .  S
O2888      C2898   1.270       .  A
O2889     Ni2894   1.951       .  S
O2889      C2898   1.288       .  A
O2890     Ni2894   1.941       .  S
O2890      C2897   1.290       .  A
O2891     Ni2894   1.870       .  S
O2891      C2896   1.269       .  A
O2892     Ni2894   1.881       .  S
O2892      C2895   1.269       .  A
Ni2893    Ni2894   2.390       .  S
C2895      C3917   1.474   1_545  S
C2897      C2926   1.468       .  S
O2899     Ni2907   1.978       .  S
O2899      C2909   1.296       .  A
O2900     Ni2907   1.952       .  S
O2900      C2910   1.288       .  A
O2901     Ni2907   1.894       .  S
O2901      C2911   1.271       .  A
O2902     Ni2907   1.874       .  S
O2902      C2912   1.270       .  A
O2903     Ni2908   1.951       .  S
O2903      C2912   1.288       .  A
O2904     Ni2908   1.941       .  S
O2904      C2911   1.290       .  A
O2905     Ni2908   1.870       .  S
O2905      C2910   1.269       .  A
O2906     Ni2908   1.881       .  S
O2906      C2909   1.269       .  A
Ni2907    Ni2908   2.390       .  S
C2909      C3903   1.474       .  S
O2913     Ni2921   1.978       .  S
O2913      C2923   1.296       .  A
O2914     Ni2921   1.952       .  S
O2914      C2924   1.288       .  A
O2915     Ni2921   1.874       .  S
O2916     Ni2921   1.894       .  S
O2916      C2926   1.271       .  A
O2917     Ni2922   1.941       .  S
O2917      C2926   1.290       .  A
O2918     Ni2922   1.951       .  S
O2919     Ni2922   1.870       .  S
O2919      C2924   1.269       .  A
O2920     Ni2922   1.881       .  S
O2920      C2923   1.269       .  A
Ni2921    Ni2922   2.390       .  S
O2927     Ni2935   1.978       .  S
O2927      C2937   1.296       .  A
O2928     Ni2935   1.952       .  S
O2928      C2938   1.288       .  A
O2929     Ni2935   1.874       .  S
O2929      C2939   1.270       .  A
O2930     Ni2935   1.894       .  S
O2930      C2940   1.271       .  A
O2932     Ni2936   1.951       .  S
O2932      C2939   1.288       .  A
O2933     Ni2936   1.870       .  S
O2933      C2938   1.269       .  A
O2934     Ni2936   1.881       .  S
O2934      C2937   1.269       .  A
Ni2935    Ni2936   2.390       .  S
O2941     Ni2949   1.978       .  S
O2941      C2951   1.296       .  A
O2942     Ni2949   1.952       .  S
O2942      C2952   1.288       .  A
O2943     Ni2949   1.894       .  S
O2943      C2953   1.271       .  A
O2944     Ni2949   1.874       .  S
O2944      C2954   1.270       .  A
O2945     Ni2950   1.951       .  S
O2945      C2954   1.288       .  A
O2946     Ni2950   1.941       .  S
O2946      C2953   1.290       .  A
O2947     Ni2950   1.870       .  S
O2947      C2952   1.269       .  A
O2948     Ni2950   1.881       .  S
O2948      C2951   1.269       .  A
Ni2949    Ni2950   2.390       .  S
C2951      C2965   1.474       .  S
O2955      C2965   1.296       .  A
O2956     Ni2963   1.952       .  S
O2956      C2966   1.288       .  A
O2957     Ni2963   1.894       .  S
O2957      C2967   1.271       .  A
O2958      C2968   1.270       .  A
O2959     Ni2964   1.951       .  S
O2960     Ni2964   1.941       .  S
O2960      C2967   1.290       .  A
O2961     Ni2964   1.870       .  S
O2961      C2966   1.269       .  A
O2962     Ni2964   1.881       .  S
Ni2963    Ni2964   2.390       .  S
C2967      C2996   1.468       .  S
O2969     Ni2977   1.978       .  S
O2969      C2979   1.296       .  A
O2970     Ni2977   1.952       .  S
O2970      C2980   1.288       .  A
O2971     Ni2977   1.874       .  S
O2971      C2981   1.270       .  A
O2972     Ni2977   1.894       .  S
O2972      C2982   1.271       .  A
O2973     Ni2978   1.941       .  S
O2973      C2982   1.290       .  A
O2974     Ni2978   1.951       .  S
O2974      C2981   1.288       .  A
O2975     Ni2978   1.870       .  S
O2975      C2980   1.269       .  A
O2976     Ni2978   1.881       .  S
O2976      C2979   1.269       .  A
Ni2977    Ni2978   2.390       .  S
C2979      C4001   1.474   1_545  S
C2982      C3009   1.468       .  S
O2983     Ni2991   1.978       .  S
O2983      C2993   1.296       .  A
O2984     Ni2991   1.952       .  S
O2984      C2994   1.288       .  A
O2985     Ni2991   1.874       .  S
O2985      C2995   1.270       .  A
O2986     Ni2991   1.894       .  S
O2986      C2996   1.271       .  A
O2987     Ni2992   1.941       .  S
O2987      C2996   1.290       .  A
O2988     Ni2992   1.951       .  S
O2988      C2995   1.288       .  A
O2989     Ni2992   1.870       .  S
O2989      C2994   1.269       .  A
O2990     Ni2992   1.881       .  S
O2990      C2993   1.269       .  A
Ni2991    Ni2992   2.390       .  S
C2993      C3987   1.474       .  S
O2997     Ni3005   1.978       .  S
O2997      C3007   1.296       .  A
O2998     Ni3005   1.952       .  S
O2998      C3008   1.288       .  A
O2999     Ni3005   1.894       .  S
O2999      C3009   1.271       .  A
O3000     Ni3005   1.874       .  S
O3000      C3010   1.270       .  A
O3002     Ni3006   1.941       .  S
O3002      C3009   1.290       .  A
O3003     Ni3006   1.870       .  S
O3003      C3008   1.269       .  A
O3004     Ni3006   1.881       .  S
O3004      C3007   1.269       .  A
Ni3005    Ni3006   2.390       .  S
C3007      C3021   1.474       .  S
O3011     Ni3019   1.978       .  S
O3011      C3021   1.296       .  A
O3012     Ni3019   1.952       .  S
O3012      C3022   1.288       .  A
O3013     Ni3019   1.894       .  S
O3013      C3023   1.271       .  A
O3014     Ni3019   1.874       .  S
O3014      C3024   1.270       .  A
O3015     Ni3020   1.951       .  S
O3015      C3024   1.288       .  A
O3016     Ni3020   1.941       .  S
O3016      C3023   1.290       .  A
O3017     Ni3020   1.870       .  S
O3017      C3022   1.269       .  A
O3018     Ni3020   1.881       .  S
O3018      C3021   1.269       .  A
Ni3019    Ni3020   2.390       .  S
O3025     Ni3033   1.978       .  S
O3025      C3035   1.296       .  A
O3026     Ni3033   1.952       .  S
O3026      C3036   1.288       .  A
O3027     Ni3033   1.894       .  S
O3027      C3037   1.271       .  A
O3028     Ni3033   1.874       .  S
O3029     Ni3034   1.951       .  S
O3030     Ni3034   1.941       .  S
O3030      C3037   1.290       .  A
O3031     Ni3034   1.870       .  S
O3031      C3036   1.269       .  A
O3032     Ni3034   1.881       .  S
O3032      C3035   1.269       .  A
Ni3033    Ni3034   2.390       .  S
C3036      C3303   1.449       .  S
C3037      C3164   1.468       .  S
C3038      C3428   1.449       .  S
O3039     Ni3047   1.978       .  S
O3039      C3049   1.296       .  A
O3040     Ni3047   1.952       .  S
O3040      C3050   1.288       .  A
O3041     Ni3047   1.894       .  S
O3041      C3051   1.271       .  A
O3042     Ni3047   1.874       .  S
O3042      C3052   1.270       .  A
O3043     Ni3048   1.951       .  S
O3043      C3052   1.288       .  A
O3045     Ni3048   1.870       .  S
O3045      C3050   1.269       .  A
O3046     Ni3048   1.881       .  S
O3046      C3049   1.269       .  A
Ni3047    Ni3048   2.390       .  S
C3050      C3485   1.449       .  S
C3052      C3232   1.449       .  S
O3053      C3063   1.296       .  A
O3054     Ni3061   1.952       .  S
O3054      C3064   1.288       .  A
O3055      C3569   1.270       .  A
O3056     Ni3061   1.894       .  S
O3056      C3066   1.271       .  A
O3057     Ni3062   1.941       .  S
O3057      C3066   1.290       .  A
O3058     Ni3566   1.951   1_554  S
O3059     Ni3062   1.870       .  S
O3059      C3064   1.269       .  A
O3060     Ni3062   1.881       .  S
Ni3061    Ni3062   2.390       .  S
Ni3062     O3562   1.951       .  S
C3063      C3077   1.474       .  S
C3064      C4018   1.449       .  S
C3065      O3559   1.270   1_554  A
C3065      C3218   1.449       .  S
C3066      C3135   1.468       .  S
O3067     Ni3075   1.978       .  S
O3067      C3077   1.296       .  A
O3068     Ni3075   1.952       .  S
O3068      C3078   1.288       .  A
O3069     Ni3075   1.874       .  S
O3069      C3079   1.270       .  A
O3070     Ni3075   1.894       .  S
O3070      C3080   1.271       .  A
O3071     Ni3076   1.941       .  S
O3071      C3080   1.290       .  A
O3072     Ni3076   1.951       .  S
O3072      C3079   1.288       .  A
O3073     Ni3076   1.870       .  S
O3073      C3078   1.269       .  A
O3074     Ni3076   1.881       .  S
O3074      C3077   1.269       .  A
Ni3075    Ni3076   2.390       .  S
C3078      C3318   1.449       .  S
C3079      C3400   1.449       .  S
O3081      C3091   1.296       .  A
O3082     Ni3089   1.952       .  S
O3082      C3092   1.288       .  A
O3083      C3093   1.270       .  A
O3084     Ni3089   1.894       .  S
O3084      C3094   1.271       .  A
O3085     Ni3090   1.941       .  S
O3085      C3094   1.290       .  A
O3086     Ni3090   1.951       .  S
O3087     Ni3090   1.870       .  S
O3087      C3092   1.269       .  A
O3088     Ni3090   1.881       .  S
Ni3089    Ni3090   2.390       .  S
C3091      C3105   1.474       .  S
C3092      C3262   1.449       .  S
C3093      C3470   1.449       .  S
C3094      C3121   1.468       .  S
O3095     Ni3103   1.978       .  S
O3095      C3105   1.296       .  A
O3096     Ni3103   1.952       .  S
O3096      C3106   1.288       .  A
O3097     Ni3103   1.874       .  S
O3097      C3107   1.270       .  A
O3098     Ni3103   1.894       .  S
O3098      C3108   1.271       .  A
O3099     Ni3104   1.941       .  S
O3099      C3108   1.290       .  A
O3100     Ni3104   1.951       .  S
O3100      C3107   1.288       .  A
O3101     Ni3104   1.870       .  S
O3101      C3106   1.269       .  A
O3102     Ni3104   1.881       .  S
O3102      C3105   1.269       .  A
Ni3103    Ni3104   2.390       .  S
C3106      C3416   1.449       .  S
C3107      C3330   1.449       .  S
O3109     Ni3117   1.978       .  S
O3109      C3119   1.296       .  A
O3110     Ni3117   1.952       .  S
O3110      C3120   1.288       .  A
O3111     Ni3117   1.894       .  S
O3111      C3121   1.271       .  A
O3112     Ni3117   1.874       .  S
O3112      C3122   1.270       .  A
O3113     Ni3118   1.951       .  S
O3113      C3122   1.288       .  A
O3114     Ni3118   1.941       .  S
O3114      C3121   1.290       .  A
O3115     Ni3118   1.870       .  S
O3115      C3120   1.269       .  A
O3116     Ni3118   1.881       .  S
O3116      C3119   1.269       .  A
Ni3117    Ni3118   2.390       .  S
C3119      C3133   1.474       .  S
C3120      C3345   1.449       .  S
C3122      C3372   1.449       .  S
O3123     Ni3131   1.978       .  S
O3123      C3133   1.296       .  A
O3124     Ni3131   1.952       .  S
O3124      C3134   1.288       .  A
O3125     Ni3131   1.894       .  S
O3125      C3135   1.271       .  A
O3126     Ni3131   1.874       .  S
O3126      C3136   1.270       .  A
O3127     Ni3132   1.951       .  S
O3127      C3136   1.288       .  A
O3128     Ni3132   1.941       .  S
O3128      C3135   1.290       .  A
O3129     Ni3132   1.870       .  S
O3129      C3134   1.269       .  A
O3130     Ni3132   1.881       .  S
O3130      C3133   1.269       .  A
Ni3131    Ni3132   2.390       .  S
C3134      C3443   1.449       .  S
C3136      C3288   1.449       .  S
O3137     Ni3145   1.978       .  S
O3137      C3147   1.296       .  A
O3138     Ni3145   1.952       .  S
O3138      C3148   1.288       .  A
O3139     Ni3145   1.874       .  S
O3139      C3149   1.270       .  A
O3140     Ni3145   1.894       .  S
O3140      C3150   1.271       .  A
O3141     Ni3146   1.941       .  S
O3141      C3150   1.290       .  A
O3142     Ni3146   1.951       .  S
O3142      C3149   1.288       .  A
O3143     Ni3146   1.870       .  S
O3143      C3148   1.269       .  A
O3144     Ni3146   1.881       .  S
O3144      C3147   1.269       .  A
Ni3145    Ni3146   2.390       .  S
C3147      C3161   1.474       .  S
C3148      C3458   1.449       .  S
C3149      C3274   1.449       .  S
C3150      C3191   1.468       .  S
O3151     Ni3159   1.978       .  S
O3151      C3161   1.296       .  A
O3152     Ni3159   1.952       .  S
O3152      C3162   1.288       .  A
O3153     Ni3159   1.874       .  S
O3153      C3163   1.270       .  A
O3154     Ni3159   1.894       .  S
O3154      C3164   1.271       .  A
O3155     Ni3160   1.941       .  S
O3155      C3164   1.290       .  A
O3156     Ni3160   1.951       .  S
O3156      C3163   1.288       .  A
O3157     Ni3160   1.870       .  S
O3157      C3162   1.269       .  A
O3158     Ni3160   1.881       .  S
O3158      C3161   1.269       .  A
Ni3159    Ni3160   2.390       .  S
C3162      C3206   1.449       .  S
C3163      C3526   1.449       .  S
O3165     Ni3173   1.978       .  S
O3165      C3175   1.296       .  A
O3166     Ni3173   1.952       .  S
O3166      C3176   1.288       .  A
O3167     Ni3173   1.894       .  S
O3167      C3177   1.271       .  A
O3168     Ni3173   1.874       .  S
O3168      C3178   1.270       .  A
O3169     Ni3174   1.951       .  S
O3169      C3178   1.288       .  A
O3171     Ni3174   1.870       .  S
O3171      C3176   1.269       .  A
O3172     Ni3174   1.881       .  S
O3172      C3175   1.269       .  A
Ni3173    Ni3174   2.390       .  S
C3176      C3247   1.449       .  S
C3178      C3498   1.449       .  S
O3179     Ni3187   1.978       .  S
O3179      C3189   1.296       .  A
O3180     Ni3187   1.952       .  S
O3180      C3190   1.288       .  A
O3181     Ni3187   1.894       .  S
O3181      C3191   1.271       .  A
O3182     Ni3187   1.874       .  S
O3183     Ni3692   1.951       .  S
O3184     Ni3188   1.941       .  S
O3184      C3191   1.290       .  A
O3185     Ni3188   1.870       .  S
O3185      C3190   1.269       .  A
O3186     Ni3188   1.881       .  S
O3186      C3189   1.269       .  A
Ni3187    Ni3188   2.390       .  S
Ni3188     O3687   1.951   1_554  S
C3190      C3387   1.449       .  S
C3192      C3862   1.450       .  S
O3193     Ni3201   1.978       .  S
O3193      C3203   1.296       .  A
O3194     Ni3201   1.952       .  S
O3194      C3204   1.288       .  A
O3195     Ni3201   1.894       .  S
O3195      C3205   1.271       .  A
O3196     Ni3201   1.874       .  S
O3196      C3206   1.270       .  A
O3197     Ni3202   1.951       .  S
O3197      C3206   1.288       .  A
O3198     Ni3202   1.941       .  S
O3198      C3205   1.290       .  A
O3199     Ni3202   1.870       .  S
O3199      C3204   1.269       .  A
O3200     Ni3202   1.881       .  S
O3200      C3203   1.269       .  A
Ni3201    Ni3202   2.390       .  S
C3203      C3217   1.474       .  S
C3204      C3499   1.449       .  S
O3207      C3217   1.296       .  A
O3208     Ni3215   1.952       .  S
O3208      C3218   1.288       .  A
O3209     Ni3215   1.894       .  S
O3209      C3219   1.271       .  A
O3210      C3220   1.270   1_554  A
O3211     Ni3720   1.951       .  S
O3212     Ni3216   1.941       .  S
O3212      C3219   1.290       .  A
O3213     Ni3216   1.870       .  S
O3213      C3218   1.269       .  A
O3214     Ni3216   1.881       .  S
Ni3215    Ni3216   2.390       .  S
Ni3216     O3715   1.951   1_554  S
C3219      C3234   1.468       .  S
C3220      C3890   1.449       .  S
O3221     Ni3229   1.978       .  S
O3221      C3231   1.296       .  A
O3222     Ni3229   1.952       .  S
O3222      C3232   1.288       .  A
O3223     Ni3229   1.874       .  S
O3223      C3233   1.270       .  A
O3224     Ni3229   1.894       .  S
O3224      C3234   1.271       .  A
O3225     Ni3230   1.941       .  S
O3225      C3234   1.290       .  A
O3226     Ni3230   1.951       .  S
O3226      C3233   1.288       .  A
O3227     Ni3230   1.870       .  S
O3227      C3232   1.269       .  A
O3228     Ni3230   1.881       .  S
O3228      C3231   1.269       .  A
Ni3229    Ni3230   2.390       .  S
C3233      C3456   1.449       .  S
O3235     Ni3243   1.978       .  S
O3235      C3245   1.296       .  A
O3236     Ni3243   1.952       .  S
O3236      C3246   1.288       .  A
O3237     Ni3243   1.874       .  S
O3237      C3247   1.270       .  A
O3238     Ni3243   1.894       .  S
O3238      C3248   1.271       .  A
O3239     Ni3244   1.941       .  S
O3239      C3248   1.290       .  A
O3240     Ni3244   1.951       .  S
O3240      C3247   1.288       .  A
O3241     Ni3244   1.870       .  S
O3241      C3246   1.269       .  A
O3242     Ni3244   1.881       .  S
O3242      C3245   1.269       .  A
Ni3243    Ni3244   2.390       .  S
C3246      C3528   1.449       .  S
C3248      C3261   1.468       .  S
O3249     Ni3257   1.978       .  S
O3249      C3259   1.296       .  A
O3250     Ni3257   1.952       .  S
O3250      C3260   1.288       .  A
O3251     Ni3257   1.894       .  S
O3251      C3261   1.271       .  A
O3252     Ni3257   1.874       .  S
O3252      C3262   1.270       .  A
O3253     Ni3258   1.951       .  S
O3253      C3262   1.288       .  A
O3254     Ni3258   1.941       .  S
O3254      C3261   1.290       .  A
O3255     Ni3258   1.870       .  S
O3255      C3260   1.269       .  A
O3256     Ni3258   1.881       .  S
O3256      C3259   1.269       .  A
Ni3257    Ni3258   2.390       .  S
C3259      C3273   1.474       .  S
C3260      C3429   1.449       .  S
O3263     Ni3271   1.978       .  S
O3263      C3273   1.296       .  A
O3264     Ni3271   1.952       .  S
O3264      C3274   1.288       .  A
O3265     Ni3271   1.894       .  S
O3265      C3275   1.271       .  A
O3266     Ni3271   1.874       .  S
O3266      C3276   1.270       .  A
O3267     Ni3272   1.951       .  S
O3267      C3276   1.288       .  A
O3268     Ni3272   1.941       .  S
O3268      C3275   1.290       .  A
O3269     Ni3272   1.870       .  S
O3269      C3274   1.269       .  A
O3270     Ni3272   1.881       .  S
O3270      C3273   1.269       .  A
Ni3271    Ni3272   2.390       .  S
C3275      C3290   1.468       .  S
C3276      C3484   1.449       .  S
O3277     Ni3285   1.978       .  S
O3277      C3287   1.296       .  A
O3278     Ni3285   1.952       .  S
O3278      C3288   1.288       .  A
O3279     Ni3285   1.874       .  S
O3279      C3289   1.270       .  A
O3280     Ni3285   1.894       .  S
O3280      C3290   1.271       .  A
O3281     Ni3286   1.941       .  S
O3281      C3290   1.290       .  A
O3282     Ni3286   1.951       .  S
O3282      C3289   1.288       .  A
O3283     Ni3286   1.870       .  S
O3283      C3288   1.269       .  A
O3284     Ni3286   1.881       .  S
O3284      C3287   1.269       .  A
Ni3285    Ni3286   2.390       .  S
C3287      C3301   1.474       .  S
C3289      C3414   1.449       .  S
O3291     Ni3299   1.978       .  S
O3291      C3301   1.296       .  A
O3292     Ni3299   1.952       .  S
O3292      C3302   1.288       .  A
O3293     Ni3299   1.874       .  S
O3293      C3303   1.270       .  A
O3294     Ni3299   1.894       .  S
O3294      C3304   1.271       .  A
O3295     Ni3300   1.941       .  S
O3295      C3304   1.290       .  A
O3296     Ni3300   1.951       .  S
O3296      C3303   1.288       .  A
O3297     Ni3300   1.870       .  S
O3297      C3302   1.269       .  A
O3298     Ni3300   1.881       .  S
O3298      C3301   1.269       .  A
Ni3299    Ni3300   2.390       .  S
C3302      C3472   1.449       .  S
C3304      C3317   1.468       .  S
O3305     Ni3313   1.978       .  S
O3305      C3315   1.296       .  A
O3306     Ni3313   1.952       .  S
O3306      C3316   1.288       .  A
O3307     Ni3313   1.894       .  S
O3307      C3317   1.271       .  A
O3308     Ni3313   1.874       .  S
O3308      C3318   1.270       .  A
O3309     Ni3314   1.951       .  S
O3309      C3318   1.288       .  A
O3310     Ni3314   1.941       .  S
O3310      C3317   1.290       .  A
O3311     Ni3314   1.870       .  S
O3311      C3316   1.269       .  A
O3312     Ni3314   1.881       .  S
O3312      C3315   1.269       .  A
Ni3313    Ni3314   2.390       .  S
C3316      C3373   1.449       .  S
O3319     Ni3327   1.978       .  S
O3319      C3329   1.296       .  A
O3320     Ni3327   1.952       .  S
O3320      C3330   1.288       .  A
O3321     Ni3327   1.894       .  S
O3321      C3331   1.271       .  A
O3322     Ni3327   1.874       .  S
O3322      C3332   1.270       .  A
O3323     Ni3328   1.951       .  S
O3323      C3332   1.288       .  A
O3324     Ni3328   1.941       .  S
O3324      C3331   1.290       .  A
O3325     Ni3328   1.870       .  S
O3325      C3330   1.269       .  A
O3326     Ni3328   1.881       .  S
O3326      C3329   1.269       .  A
Ni3327    Ni3328   2.390       .  S
C3331      C3360   1.468       .  S
C3332      C3442   1.449       .  S
O3333     Ni3341   1.978       .  S
O3333      C3343   1.296       .  A
O3334     Ni3341   1.952       .  S
O3334      C3344   1.288       .  A
O3335     Ni3341   1.874       .  S
O3335      C3345   1.270       .  A
O3336     Ni3341   1.894       .  S
O3336      C3346   1.271       .  A
O3338     Ni3342   1.951       .  S
O3338      C3345   1.288       .  A
O3339     Ni3342   1.870       .  S
O3339      C3344   1.269       .  A
O3340     Ni3342   1.881       .  S
O3340      C3343   1.269       .  A
Ni3341    Ni3342   2.390       .  S
C3344      C3402   1.449       .  S
O3347     Ni3355   1.978       .  S
O3347      C3357   1.296       .  A
O3348     Ni3355   1.952       .  S
O3348      C3358   1.288       .  A
O3349     Ni3355   1.874       .  S
O3350     Ni3355   1.894       .  S
O3350      C3360   1.271       .  A
O3351     Ni3356   1.941       .  S
O3351      C3360   1.290       .  A
O3352     Ni3860   1.951   1_554  S
O3353     Ni3356   1.870       .  S
O3353      C3358   1.269       .  A
O3354     Ni3356   1.881       .  S
O3354      C3357   1.269       .  A
Ni3355    Ni3356   2.390       .  S
Ni3356     O3856   1.951       .  S
C3358      C3696   1.450       .  S
C3359      C3512   1.449       .  S
O3361     Ni3369   1.978       .  S
O3361      C3371   1.296       .  A
O3362     Ni3369   1.952       .  S
O3362      C3372   1.288       .  A
O3363     Ni3369   1.874       .  S
O3363      C3373   1.270       .  A
O3364     Ni3369   1.894       .  S
O3364      C3374   1.271       .  A
O3365     Ni3370   1.941       .  S
O3365      C3374   1.290       .  A
O3366     Ni3370   1.951       .  S
O3366      C3373   1.288       .  A
O3367     Ni3370   1.870       .  S
O3367      C3372   1.269       .  A
O3368     Ni3370   1.881       .  S
O3368      C3371   1.269       .  A
Ni3369    Ni3370   2.390       .  S
C3371      C3385   1.474       .  S
C3374      C4031   1.468       .  S
O3375     Ni3383   1.978       .  S
O3375      C3385   1.296       .  A
O3376     Ni3383   1.952       .  S
O3376      C3386   1.288       .  A
O3377     Ni3383   1.874       .  S
O3377      C3891   1.270       .  A
O3378     Ni3383   1.894       .  S
O3378      C3388   1.271       .  A
O3379     Ni3384   1.941       .  S
O3379      C3388   1.290       .  A
O3380     Ni3888   1.951   1_554  S
O3380      C3387   1.288       .  A
O3381     Ni3384   1.870       .  S
O3381      C3386   1.269       .  A
O3382     Ni3384   1.881       .  S
O3382      C3385   1.269       .  A
Ni3383    Ni3384   2.390       .  S
Ni3384     O3884   1.951       .  S
C3386      C3724   1.449       .  S
C3387      O3881   1.270   1_554  A
C3388      C3415   1.468       .  S
O3389     Ni3397   1.978       .  S
O3389      C3399   1.296       .  A
O3390     Ni3397   1.952       .  S
O3390      C3400   1.288       .  A
O3391     Ni3397   1.894       .  S
O3391      C3401   1.271       .  A
O3392     Ni3397   1.874       .  S
O3392      C3402   1.270       .  A
O3393     Ni3398   1.951       .  S
O3393      C3402   1.288       .  A
O3394     Ni3398   1.941       .  S
O3394      C3401   1.290       .  A
O3395     Ni3398   1.870       .  S
O3395      C3400   1.269       .  A
O3396     Ni3398   1.881       .  S
O3396      C3399   1.269       .  A
Ni3397    Ni3398   2.390       .  S
C3401      C3430   1.468       .  S
O3403     Ni3411   1.978       .  S
O3403      C3413   1.296       .  A
O3404     Ni3411   1.952       .  S
O3404      C3414   1.288       .  A
O3405     Ni3411   1.894       .  S
O3405      C3415   1.271       .  A
O3406     Ni3411   1.874       .  S
O3406      C3416   1.270       .  A
O3407     Ni3412   1.951       .  S
O3407      C3416   1.288       .  A
O3408     Ni3412   1.941       .  S
O3408      C3415   1.290       .  A
O3409     Ni3412   1.870       .  S
O3409      C3414   1.269       .  A
O3410     Ni3412   1.881       .  S
O3410      C3413   1.269       .  A
Ni3411    Ni3412   2.390       .  S
O3417     Ni3425   1.978       .  S
O3417      C3427   1.296       .  A
O3418     Ni3425   1.952       .  S
O3418      C3428   1.288       .  A
O3419     Ni3425   1.874       .  S
O3420     Ni3425   1.894       .  S
O3420      C3430   1.271       .  A
O3421     Ni3426   1.941       .  S
O3421      C3430   1.290       .  A
O3422     Ni3426   1.951       .  S
O3423     Ni3426   1.870       .  S
O3423      C3428   1.269       .  A
O3424     Ni3426   1.881       .  S
O3424      C3427   1.269       .  A
Ni3425    Ni3426   2.390       .  S
O3431     Ni3439   1.978       .  S
O3431      C3441   1.296       .  A
O3432     Ni3439   1.952       .  S
O3432      C3442   1.288       .  A
O3433     Ni3439   1.874       .  S
O3433      C3443   1.270       .  A
O3434     Ni3439   1.894       .  S
O3434      C3444   1.271       .  A
O3436     Ni3440   1.951       .  S
O3436      C3443   1.288       .  A
O3437     Ni3440   1.870       .  S
O3437      C3442   1.269       .  A
O3438     Ni3440   1.881       .  S
O3438      C3441   1.269       .  A
Ni3439    Ni3440   2.390       .  S
O3445     Ni3453   1.978       .  S
O3445      C3455   1.296       .  A
O3446     Ni3453   1.952       .  S
O3446      C3456   1.288       .  A
O3447     Ni3453   1.894       .  S
O3447      C3457   1.271       .  A
O3448     Ni3453   1.874       .  S
O3448      C3458   1.270       .  A
O3449     Ni3454   1.951       .  S
O3449      C3458   1.288       .  A
O3450     Ni3454   1.941       .  S
O3450      C3457   1.290       .  A
O3451     Ni3454   1.870       .  S
O3451      C3456   1.269       .  A
O3452     Ni3454   1.881       .  S
O3452      C3455   1.269       .  A
Ni3453    Ni3454   2.390       .  S
C3455      C3469   1.474       .  S
O3459      C3469   1.296       .  A
O3460     Ni3467   1.952       .  S
O3460      C3470   1.288       .  A
O3461     Ni3467   1.894       .  S
O3461      C3471   1.271       .  A
O3462      C3472   1.270       .  A
O3463     Ni3468   1.951       .  S
O3464     Ni3468   1.941       .  S
O3464      C3471   1.290       .  A
O3465     Ni3468   1.870       .  S
O3465      C3470   1.269       .  A
O3466     Ni3468   1.881       .  S
Ni3467    Ni3468   2.390       .  S
C3471      C3500   1.468       .  S
O3473     Ni3481   1.978       .  S
O3473      C3483   1.296       .  A
O3474     Ni3481   1.952       .  S
O3474      C3484   1.288       .  A
O3475     Ni3481   1.874       .  S
O3475      C3485   1.270       .  A
O3476     Ni3481   1.894       .  S
O3476      C3486   1.271       .  A
O3477     Ni3482   1.941       .  S
O3477      C3486   1.290       .  A
O3478     Ni3482   1.951       .  S
O3478      C3485   1.288       .  A
O3479     Ni3482   1.870       .  S
O3479      C3484   1.269       .  A
O3480     Ni3482   1.881       .  S
O3480      C3483   1.269       .  A
Ni3481    Ni3482   2.390       .  S
C3486      C3513   1.468       .  S
O3487     Ni3495   1.978       .  S
O3487      C3497   1.296       .  A
O3488     Ni3495   1.952       .  S
O3488      C3498   1.288       .  A
O3489     Ni3495   1.874       .  S
O3489      C3499   1.270       .  A
O3490     Ni3495   1.894       .  S
O3490      C3500   1.271       .  A
O3491     Ni3496   1.941       .  S
O3491      C3500   1.290       .  A
O3492     Ni3496   1.951       .  S
O3492      C3499   1.288       .  A
O3493     Ni3496   1.870       .  S
O3493      C3498   1.269       .  A
O3494     Ni3496   1.881       .  S
O3494      C3497   1.269       .  A
Ni3495    Ni3496   2.390       .  S
O3501     Ni3509   1.978       .  S
O3501      C3511   1.296       .  A
O3502     Ni3509   1.952       .  S
O3502      C3512   1.288       .  A
O3503     Ni3509   1.894       .  S
O3503      C3513   1.271       .  A
O3504     Ni3509   1.874       .  S
O3504      C3514   1.270   1_554  A
O3505     Ni4014   1.951       .  S
O3505      C4018   1.288       .  A
O3506     Ni3510   1.941       .  S
O3506      C3513   1.290       .  A
O3507     Ni3510   1.870       .  S
O3507      C3512   1.269       .  A
O3508     Ni3510   1.881       .  S
O3508      C3511   1.269       .  A
Ni3509    Ni3510   2.390       .  S
Ni3510     O4009   1.951   1_554  S
C3511      C3525   1.474       .  S
C3514      O4009   1.288       .  A
C3514      C3568   1.449       .  S
O3515     Ni3523   1.978       .  S
O3515      C3525   1.296       .  A
O3516     Ni3523   1.952       .  S
O3516      C3526   1.288       .  A
O3517     Ni3523   1.894       .  S
O3517      C3527   1.271       .  A
O3518     Ni3523   1.874       .  S
O3518      C3528   1.270       .  A
O3519     Ni3524   1.951       .  S
O3519      C3528   1.288       .  A
O3520     Ni3524   1.941       .  S
O3520      C3527   1.290       .  A
O3521     Ni3524   1.870       .  S
O3521      C3526   1.269       .  A
O3522     Ni3524   1.881       .  S
O3522      C3525   1.269       .  A
Ni3523    Ni3524   2.390       .  S
C3527      C3878   1.468   1_554  S
O3529     Ni3537   1.978       .  S
O3529      C3539   1.296       .  A
O3530     Ni3537   1.952       .  S
O3530      C3540   1.288       .  A
O3531     Ni3537   1.894       .  S
O3531      C3541   1.271       .  A
O3532     Ni3537   1.874       .  S
O3533     Ni3538   1.951       .  S
O3534     Ni3538   1.941       .  S
O3534      C3541   1.290       .  A
O3535     Ni3538   1.870       .  S
O3535      C3540   1.269       .  A
O3536     Ni3538   1.881       .  S
O3536      C3539   1.269       .  A
Ni3537    Ni3538   2.390       .  S
C3540      C3807   1.449       .  S
C3541      C3668   1.468       .  S
C3542      C3932   1.449       .  S
O3543     Ni3551   1.978       .  S
O3543      C3553   1.296       .  A
O3544     Ni3551   1.952       .  S
O3544      C3554   1.288       .  A
O3545     Ni3551   1.894       .  S
O3545      C3555   1.271       .  A
O3546     Ni3551   1.874       .  S
O3546      C3556   1.270       .  A
O3547     Ni3552   1.951       .  S
O3547      C3556   1.288       .  A
O3549     Ni3552   1.870       .  S
O3549      C3554   1.269       .  A
O3550     Ni3552   1.881       .  S
O3550      C3553   1.269       .  A
Ni3551    Ni3552   2.390       .  S
C3554      C3989   1.449       .  S
C3556      C3736   1.449       .  S
O3557      C3567   1.296       .  A
O3558     Ni3565   1.952       .  S
O3558      C3568   1.288       .  A
O3560     Ni3565   1.894       .  S
O3560      C3570   1.271       .  A
O3561     Ni3566   1.941       .  S
O3561      C3570   1.290       .  A
O3563     Ni3566   1.870       .  S
O3563      C3568   1.269       .  A
O3564     Ni3566   1.881       .  S
Ni3565    Ni3566   2.390       .  S
C3567      C3581   1.474       .  S
C3569      C3722   1.449       .  S
C3570      C3639   1.468       .  S
O3571     Ni3579   1.978       .  S
O3571      C3581   1.296       .  A
O3572     Ni3579   1.952       .  S
O3572      C3582   1.288       .  A
O3573     Ni3579   1.874       .  S
O3573      C3583   1.270       .  A
O3574     Ni3579   1.894       .  S
O3574      C3584   1.271       .  A
O3575     Ni3580   1.941       .  S
O3575      C3584   1.290       .  A
O3576     Ni3580   1.951       .  S
O3576      C3583   1.288       .  A
O3577     Ni3580   1.870       .  S
O3577      C3582   1.269       .  A
O3578     Ni3580   1.881       .  S
O3578      C3581   1.269       .  A
Ni3579    Ni3580   2.390       .  S
C3582      C3822   1.449       .  S
C3583      C3904   1.449       .  S
O3585      C3595   1.296       .  A
O3586     Ni3593   1.952       .  S
O3586      C3596   1.288       .  A
O3587      C3597   1.270       .  A
O3588     Ni3593   1.894       .  S
O3588      C3598   1.271       .  A
O3589     Ni3594   1.941       .  S
O3589      C3598   1.290       .  A
O3590     Ni3594   1.951       .  S
O3591     Ni3594   1.870       .  S
O3591      C3596   1.269       .  A
O3592     Ni3594   1.881       .  S
Ni3593    Ni3594   2.390       .  S
C3595      C3609   1.474       .  S
C3596      C3766   1.449       .  S
C3597      C3974   1.449       .  S
C3598      C3625   1.468       .  S
O3599     Ni3607   1.978       .  S
O3599      C3609   1.296       .  A
O3600     Ni3607   1.952       .  S
O3600      C3610   1.288       .  A
O3601     Ni3607   1.874       .  S
O3601      C3611   1.270       .  A
O3602     Ni3607   1.894       .  S
O3602      C3612   1.271       .  A
O3603     Ni3608   1.941       .  S
O3603      C3612   1.290       .  A
O3604     Ni3608   1.951       .  S
O3604      C3611   1.288       .  A
O3605     Ni3608   1.870       .  S
O3605      C3610   1.269       .  A
O3606     Ni3608   1.881       .  S
O3606      C3609   1.269       .  A
Ni3607    Ni3608   2.390       .  S
C3610      C3920   1.449       .  S
C3611      C3834   1.449       .  S
O3613     Ni3621   1.978       .  S
O3613      C3623   1.296       .  A
O3614     Ni3621   1.952       .  S
O3614      C3624   1.288       .  A
O3615     Ni3621   1.894       .  S
O3615      C3625   1.271       .  A
O3616     Ni3621   1.874       .  S
O3616      C3626   1.270       .  A
O3617     Ni3622   1.951       .  S
O3617      C3626   1.288       .  A
O3618     Ni3622   1.941       .  S
O3618      C3625   1.290       .  A
O3619     Ni3622   1.870       .  S
O3619      C3624   1.269       .  A
O3620     Ni3622   1.881       .  S
O3620      C3623   1.269       .  A
Ni3621    Ni3622   2.390       .  S
C3623      C3637   1.474       .  S
C3624      C3849   1.449       .  S
C3626      C3876   1.449       .  S
O3627     Ni3635   1.978       .  S
O3627      C3637   1.296       .  A
O3628     Ni3635   1.952       .  S
O3628      C3638   1.288       .  A
O3629     Ni3635   1.894       .  S
O3629      C3639   1.271       .  A
O3630     Ni3635   1.874       .  S
O3630      C3640   1.270       .  A
O3631     Ni3636   1.951       .  S
O3631      C3640   1.288       .  A
O3632     Ni3636   1.941       .  S
O3632      C3639   1.290       .  A
O3633     Ni3636   1.870       .  S
O3633      C3638   1.269       .  A
O3634     Ni3636   1.881       .  S
O3634      C3637   1.269       .  A
Ni3635    Ni3636   2.390       .  S
C3638      C3947   1.449       .  S
C3640      C3792   1.449       .  S
O3641     Ni3649   1.978       .  S
O3641      C3651   1.296       .  A
O3642     Ni3649   1.952       .  S
O3642      C3652   1.288       .  A
O3643     Ni3649   1.874       .  S
O3643      C3653   1.270       .  A
O3644     Ni3649   1.894       .  S
O3644      C3654   1.271       .  A
O3645     Ni3650   1.941       .  S
O3645      C3654   1.290       .  A
O3646     Ni3650   1.951       .  S
O3646      C3653   1.288       .  A
O3647     Ni3650   1.870       .  S
O3647      C3652   1.269       .  A
O3648     Ni3650   1.881       .  S
O3648      C3651   1.269       .  A
Ni3649    Ni3650   2.390       .  S
C3651      C3665   1.474       .  S
C3652      C3962   1.449       .  S
C3653      C3778   1.449       .  S
C3654      C3695   1.468       .  S
O3655     Ni3663   1.978       .  S
O3655      C3665   1.296       .  A
O3656     Ni3663   1.952       .  S
O3656      C3666   1.288       .  A
O3657     Ni3663   1.874       .  S
O3657      C3667   1.270       .  A
O3658     Ni3663   1.894       .  S
O3658      C3668   1.271       .  A
O3659     Ni3664   1.941       .  S
O3659      C3668   1.290       .  A
O3660     Ni3664   1.951       .  S
O3660      C3667   1.288       .  A
O3661     Ni3664   1.870       .  S
O3661      C3666   1.269       .  A
O3662     Ni3664   1.881       .  S
O3662      C3665   1.269       .  A
Ni3663    Ni3664   2.390       .  S
C3666      C3710   1.449       .  S
C3667      C4030   1.449       .  S
O3669     Ni3677   1.978       .  S
O3669      C3679   1.296       .  A
O3670     Ni3677   1.952       .  S
O3670      C3680   1.288       .  A
O3671     Ni3677   1.894       .  S
O3671      C3681   1.271       .  A
O3672     Ni3677   1.874       .  S
O3672      C3682   1.270       .  A
O3673     Ni3678   1.951       .  S
O3673      C3682   1.288       .  A
O3675     Ni3678   1.870       .  S
O3675      C3680   1.269       .  A
O3676     Ni3678   1.881       .  S
O3676      C3679   1.269       .  A
Ni3677    Ni3678   2.390       .  S
C3680      C3751   1.449       .  S
C3682      C4002   1.449       .  S
O3683     Ni3691   1.978       .  S
O3683      C3693   1.296       .  A
O3684     Ni3691   1.952       .  S
O3684      C3694   1.288       .  A
O3685     Ni3691   1.894       .  S
O3685      C3695   1.271       .  A
O3686     Ni3691   1.874       .  S
O3688     Ni3692   1.941       .  S
O3688      C3695   1.290       .  A
O3689     Ni3692   1.870       .  S
O3689      C3694   1.269       .  A
O3690     Ni3692   1.881       .  S
O3690      C3693   1.269       .  A
Ni3691    Ni3692   2.390       .  S
C3694      C3891   1.449       .  S
O3697     Ni3705   1.978       .  S
O3697      C3707   1.296       .  A
O3698     Ni3705   1.952       .  S
O3698      C3708   1.288       .  A
O3699     Ni3705   1.894       .  S
O3699      C3709   1.271       .  A
O3700     Ni3705   1.874       .  S
O3700      C3710   1.270       .  A
O3701     Ni3706   1.951       .  S
O3701      C3710   1.288       .  A
O3702     Ni3706   1.941       .  S
O3702      C3709   1.290       .  A
O3703     Ni3706   1.870       .  S
O3703      C3708   1.269       .  A
O3704     Ni3706   1.881       .  S
O3704      C3707   1.269       .  A
Ni3705    Ni3706   2.390       .  S
C3707      C3721   1.474       .  S
C3708      C4003   1.449       .  S
O3711      C3721   1.296       .  A
O3712     Ni3719   1.952       .  S
O3712      C3722   1.288       .  A
O3713     Ni3719   1.894       .  S
O3713      C3723   1.271       .  A
O3714      C3724   1.270       .  A
O3716     Ni3720   1.941       .  S
O3716      C3723   1.290       .  A
O3717     Ni3720   1.870       .  S
O3717      C3722   1.269       .  A
O3718     Ni3720   1.881       .  S
Ni3719    Ni3720   2.390       .  S
C3723      C3738   1.468       .  S
O3725     Ni3733   1.978       .  S
O3725      C3735   1.296       .  A
O3726     Ni3733   1.952       .  S
O3726      C3736   1.288       .  A
O3727     Ni3733   1.874       .  S
O3727      C3737   1.270       .  A
O3728     Ni3733   1.894       .  S
O3728      C3738   1.271       .  A
O3729     Ni3734   1.941       .  S
O3729      C3738   1.290       .  A
O3730     Ni3734   1.951       .  S
O3730      C3737   1.288       .  A
O3731     Ni3734   1.870       .  S
O3731      C3736   1.269       .  A
O3732     Ni3734   1.881       .  S
O3732      C3735   1.269       .  A
Ni3733    Ni3734   2.390       .  S
C3737      C3960   1.450       .  S
O3739     Ni3747   1.978       .  S
O3739      C3749   1.296       .  A
O3740     Ni3747   1.952       .  S
O3740      C3750   1.288       .  A
O3741     Ni3747   1.874       .  S
O3741      C3751   1.270       .  A
O3742     Ni3747   1.894       .  S
O3742      C3752   1.271       .  A
O3743     Ni3748   1.941       .  S
O3743      C3752   1.290       .  A
O3744     Ni3748   1.951       .  S
O3744      C3751   1.288       .  A
O3745     Ni3748   1.870       .  S
O3745      C3750   1.269       .  A
O3746     Ni3748   1.881       .  S
O3746      C3749   1.269       .  A
Ni3747    Ni3748   2.390       .  S
C3750      C4032   1.449       .  S
C3752      C3765   1.468       .  S
O3753     Ni3761   1.978       .  S
O3753      C3763   1.296       .  A
O3754     Ni3761   1.952       .  S
O3754      C3764   1.288       .  A
O3755     Ni3761   1.894       .  S
O3755      C3765   1.271       .  A
O3756     Ni3761   1.874       .  S
O3756      C3766   1.270       .  A
O3757     Ni3762   1.951       .  S
O3757      C3766   1.288       .  A
O3758     Ni3762   1.941       .  S
O3758      C3765   1.290       .  A
O3759     Ni3762   1.870       .  S
O3759      C3764   1.269       .  A
O3760     Ni3762   1.881       .  S
O3760      C3763   1.269       .  A
Ni3761    Ni3762   2.390       .  S
C3763      C3777   1.474       .  S
C3764      C3933   1.449       .  S
O3767     Ni3775   1.978       .  S
O3767      C3777   1.296       .  A
O3768     Ni3775   1.952       .  S
O3768      C3778   1.288       .  A
O3769     Ni3775   1.894       .  S
O3769      C3779   1.271       .  A
O3770     Ni3775   1.874       .  S
O3770      C3780   1.270       .  A
O3771     Ni3776   1.951       .  S
O3771      C3780   1.288       .  A
O3772     Ni3776   1.941       .  S
O3772      C3779   1.290       .  A
O3773     Ni3776   1.870       .  S
O3773      C3778   1.269       .  A
O3774     Ni3776   1.881       .  S
O3774      C3777   1.269       .  A
Ni3775    Ni3776   2.390       .  S
C3779      C3794   1.468       .  S
C3780      C3988   1.449       .  S
O3781     Ni3789   1.978       .  S
O3781      C3791   1.296       .  A
O3782     Ni3789   1.952       .  S
O3782      C3792   1.288       .  A
O3783     Ni3789   1.874       .  S
O3783      C3793   1.270       .  A
O3784     Ni3789   1.894       .  S
O3784      C3794   1.271       .  A
O3785     Ni3790   1.941       .  S
O3785      C3794   1.290       .  A
O3786     Ni3790   1.951       .  S
O3786      C3793   1.288       .  A
O3787     Ni3790   1.870       .  S
O3787      C3792   1.269       .  A
O3788     Ni3790   1.881       .  S
O3788      C3791   1.269       .  A
Ni3789    Ni3790   2.390       .  S
C3791      C3805   1.474       .  S
C3793      C3918   1.449       .  S
O3795     Ni3803   1.978       .  S
O3795      C3805   1.296       .  A
O3796     Ni3803   1.952       .  S
O3796      C3806   1.288       .  A
O3797     Ni3803   1.874       .  S
O3797      C3807   1.270       .  A
O3798     Ni3803   1.894       .  S
O3798      C3808   1.271       .  A
O3799     Ni3804   1.941       .  S
O3799      C3808   1.290       .  A
O3800     Ni3804   1.951       .  S
O3800      C3807   1.288       .  A
O3801     Ni3804   1.870       .  S
O3801      C3806   1.269       .  A
O3802     Ni3804   1.881       .  S
O3802      C3805   1.269       .  A
Ni3803    Ni3804   2.390       .  S
C3806      C3976   1.449       .  S
C3808      C3821   1.468       .  S
O3809     Ni3817   1.978       .  S
O3809      C3819   1.296       .  A
O3810     Ni3817   1.952       .  S
O3810      C3820   1.288       .  A
O3811     Ni3817   1.894       .  S
O3811      C3821   1.271       .  A
O3812     Ni3817   1.874       .  S
O3812      C3822   1.270       .  A
O3813     Ni3818   1.951       .  S
O3813      C3822   1.288       .  A
O3814     Ni3818   1.941       .  S
O3814      C3821   1.290       .  A
O3815     Ni3818   1.870       .  S
O3815      C3820   1.269       .  A
O3816     Ni3818   1.881       .  S
O3816      C3819   1.269       .  A
Ni3817    Ni3818   2.390       .  S
C3820      C3877   1.449       .  S
O3823     Ni3831   1.978       .  S
O3823      C3833   1.296       .  A
O3824     Ni3831   1.952       .  S
O3824      C3834   1.288       .  A
O3825     Ni3831   1.894       .  S
O3825      C3835   1.271       .  A
O3826     Ni3831   1.874       .  S
O3826      C3836   1.270       .  A
O3827     Ni3832   1.951       .  S
O3827      C3836   1.288       .  A
O3828     Ni3832   1.941       .  S
O3828      C3835   1.290       .  A
O3829     Ni3832   1.870       .  S
O3829      C3834   1.269       .  A
O3830     Ni3832   1.881       .  S
O3830      C3833   1.269       .  A
Ni3831    Ni3832   2.390       .  S
C3835      C3864   1.468       .  S
C3836      C3946   1.449       .  S
O3837     Ni3845   1.978       .  S
O3837      C3847   1.296       .  A
O3838     Ni3845   1.952       .  S
O3838      C3848   1.288       .  A
O3839     Ni3845   1.874       .  S
O3839      C3849   1.270       .  A
O3840     Ni3845   1.894       .  S
O3840      C3850   1.271       .  A
O3842     Ni3846   1.951       .  S
O3842      C3849   1.288       .  A
O3843     Ni3846   1.870       .  S
O3843      C3848   1.269       .  A
O3844     Ni3846   1.881       .  S
O3844      C3847   1.269       .  A
Ni3845    Ni3846   2.390       .  S
C3848      C3906   1.449       .  S
O3851     Ni3859   1.978       .  S
O3851      C3861   1.296       .  A
O3852     Ni3859   1.952       .  S
O3852      C3862   1.288       .  A
O3853     Ni3859   1.874       .  S
O3854     Ni3859   1.894       .  S
O3854      C3864   1.271       .  A
O3855     Ni3860   1.941       .  S
O3855      C3864   1.290       .  A
O3857     Ni3860   1.870       .  S
O3857      C3862   1.269       .  A
O3858     Ni3860   1.881       .  S
O3858      C3861   1.269       .  A
Ni3859    Ni3860   2.390       .  S
C3863      C4016   1.449       .  S
O3865     Ni3873   1.978       .  S
O3865      C3875   1.296       .  A
O3866     Ni3873   1.952       .  S
O3866      C3876   1.288       .  A
O3867     Ni3873   1.874       .  S
O3867      C3877   1.270       .  A
O3868     Ni3873   1.894       .  S
O3868      C3878   1.271       .  A
O3869     Ni3874   1.941       .  S
O3869      C3878   1.290       .  A
O3870     Ni3874   1.951       .  S
O3870      C3877   1.288       .  A
O3871     Ni3874   1.870       .  S
O3871      C3876   1.269       .  A
O3872     Ni3874   1.881       .  S
O3872      C3875   1.269       .  A
Ni3873    Ni3874   2.390       .  S
C3875      C3889   1.474       .  S
O3879     Ni3887   1.978       .  S
O3879      C3889   1.296       .  A
O3880     Ni3887   1.952       .  S
O3880      C3890   1.288       .  A
O3881     Ni3887   1.874       .  S
O3882     Ni3887   1.894       .  S
O3882      C3892   1.271       .  A
O3883     Ni3888   1.941       .  S
O3883      C3892   1.290       .  A
O3884      C3891   1.288       .  A
O3885     Ni3888   1.870       .  S
O3885      C3890   1.269       .  A
O3886     Ni3888   1.881       .  S
O3886      C3889   1.269       .  A
Ni3887    Ni3888   2.390       .  S
C3892      C3919   1.468       .  S
O3893     Ni3901   1.978       .  S
O3893      C3903   1.296       .  A
O3894     Ni3901   1.952       .  S
O3894      C3904   1.288       .  A
O3895     Ni3901   1.894       .  S
O3895      C3905   1.271       .  A
O3896     Ni3901   1.874       .  S
O3896      C3906   1.270       .  A
O3897     Ni3902   1.951       .  S
O3897      C3906   1.288       .  A
O3898     Ni3902   1.941       .  S
O3898      C3905   1.290       .  A
O3899     Ni3902   1.870       .  S
O3899      C3904   1.269       .  A
O3900     Ni3902   1.881       .  S
O3900      C3903   1.269       .  A
Ni3901    Ni3902   2.390       .  S
C3905      C3934   1.468       .  S
O3907     Ni3915   1.978       .  S
O3907      C3917   1.296       .  A
O3908     Ni3915   1.952       .  S
O3908      C3918   1.288       .  A
O3909     Ni3915   1.894       .  S
O3909      C3919   1.271       .  A
O3910     Ni3915   1.874       .  S
O3910      C3920   1.270       .  A
O3911     Ni3916   1.951       .  S
O3911      C3920   1.288       .  A
O3912     Ni3916   1.941       .  S
O3912      C3919   1.290       .  A
O3913     Ni3916   1.870       .  S
O3913      C3918   1.269       .  A
O3914     Ni3916   1.881       .  S
O3914      C3917   1.269       .  A
Ni3915    Ni3916   2.390       .  S
O3921     Ni3929   1.978       .  S
O3921      C3931   1.296       .  A
O3922     Ni3929   1.952       .  S
O3922      C3932   1.288       .  A
O3923     Ni3929   1.874       .  S
O3924     Ni3929   1.894       .  S
O3924      C3934   1.271       .  A
O3925     Ni3930   1.941       .  S
O3925      C3934   1.290       .  A
O3926     Ni3930   1.951       .  S
O3927     Ni3930   1.870       .  S
O3927      C3932   1.269       .  A
O3928     Ni3930   1.881       .  S
O3928      C3931   1.269       .  A
Ni3929    Ni3930   2.390       .  S
O3935     Ni3943   1.978       .  S
O3935      C3945   1.296       .  A
O3936     Ni3943   1.952       .  S
O3936      C3946   1.288       .  A
O3937     Ni3943   1.874       .  S
O3937      C3947   1.270       .  A
O3938     Ni3943   1.894       .  S
O3938      C3948   1.271       .  A
O3940     Ni3944   1.951       .  S
O3940      C3947   1.288       .  A
O3941     Ni3944   1.870       .  S
O3941      C3946   1.269       .  A
O3942     Ni3944   1.881       .  S
O3942      C3945   1.269       .  A
Ni3943    Ni3944   2.390       .  S
O3949     Ni3957   1.978       .  S
O3949      C3959   1.296       .  A
O3950     Ni3957   1.952       .  S
O3950      C3960   1.288       .  A
O3951     Ni3957   1.894       .  S
O3951      C3961   1.271       .  A
O3952     Ni3957   1.874       .  S
O3952      C3962   1.270       .  A
O3953     Ni3958   1.951       .  S
O3953      C3962   1.288       .  A
O3954     Ni3958   1.941       .  S
O3954      C3961   1.290       .  A
O3955     Ni3958   1.870       .  S
O3955      C3960   1.269       .  A
O3956     Ni3958   1.881       .  S
O3956      C3959   1.269       .  A
Ni3957    Ni3958   2.390       .  S
C3959      C3973   1.474       .  S
O3963      C3973   1.296       .  A
O3964     Ni3971   1.952       .  S
O3964      C3974   1.288       .  A
O3965     Ni3971   1.894       .  S
O3965      C3975   1.271       .  A
O3966      C3976   1.270       .  A
O3967     Ni3972   1.951       .  S
O3968     Ni3972   1.941       .  S
O3968      C3975   1.290       .  A
O3969     Ni3972   1.870       .  S
O3969      C3974   1.269       .  A
O3970     Ni3972   1.881       .  S
Ni3971    Ni3972   2.390       .  S
C3975      C4004   1.468       .  S
O3977     Ni3985   1.978       .  S
O3977      C3987   1.296       .  A
O3978     Ni3985   1.952       .  S
O3978      C3988   1.288       .  A
O3979     Ni3985   1.874       .  S
O3979      C3989   1.270       .  A
O3980     Ni3985   1.894       .  S
O3980      C3990   1.271       .  A
O3981     Ni3986   1.941       .  S
O3981      C3990   1.290       .  A
O3982     Ni3986   1.951       .  S
O3982      C3989   1.288       .  A
O3983     Ni3986   1.870       .  S
O3983      C3988   1.269       .  A
O3984     Ni3986   1.881       .  S
O3984      C3987   1.269       .  A
Ni3985    Ni3986   2.390       .  S
C3990      C4017   1.468       .  S
O3991     Ni3999   1.978       .  S
O3991      C4001   1.296       .  A
O3992     Ni3999   1.952       .  S
O3992      C4002   1.288       .  A
O3993     Ni3999   1.874       .  S
O3993      C4003   1.270       .  A
O3994     Ni3999   1.894       .  S
O3994      C4004   1.271       .  A
O3995     Ni4000   1.941       .  S
O3995      C4004   1.290       .  A
O3996     Ni4000   1.951       .  S
O3996      C4003   1.288       .  A
O3997     Ni4000   1.870       .  S
O3997      C4002   1.269       .  A
O3998     Ni4000   1.881       .  S
O3998      C4001   1.269       .  A
Ni3999    Ni4000   2.390       .  S
O4005     Ni4013   1.978       .  S
O4005      C4015   1.296       .  A
O4006     Ni4013   1.952       .  S
O4006      C4016   1.288       .  A
O4007     Ni4013   1.894       .  S
O4007      C4017   1.271       .  A
O4008     Ni4013   1.874       .  S
O4008      C4018   1.270       .  A
O4010     Ni4014   1.941       .  S
O4010      C4017   1.290       .  A
O4011     Ni4014   1.870       .  S
O4011      C4016   1.269       .  A
O4012     Ni4014   1.881       .  S
O4012      C4015   1.269       .  A
Ni4013    Ni4014   2.390       .  S
C4015      C4029   1.474       .  S
O4019     Ni4027   1.978       .  S
O4019      C4029   1.296       .  A
O4020     Ni4027   1.952       .  S
O4020      C4030   1.288       .  A
O4021     Ni4027   1.894       .  S
O4021      C4031   1.271       .  A
O4022     Ni4027   1.874       .  S
O4022      C4032   1.270       .  A
O4023     Ni4028   1.951       .  S
O4023      C4032   1.288       .  A
O4024     Ni4028   1.941       .  S
O4024      C4031   1.290       .  A
O4025     Ni4028   1.870       .  S
O4025      C4030   1.269       .  A
O4026     Ni4028   1.881       .  S
O4026      C4029   1.269       .  A
Ni4027    Ni4028   2.390       .  S
