geometry optimzed in LAMMPS
_audit_creation_date              2020-12-01 
_audit_creation_method            'lammps2cif' 
_symmetry_space_group_name_H-M    'P1' 
_symmetry_Int_Tables_number       1 
_symmetry_cell_setting            triclinic 
loop_ 
_symmetry_equiv_pos_as_xyz 
  x,y,z 
_cell_length_a                    33.15455761 
_cell_length_b                    33.4547053640799 
_cell_length_c                    26.129243810977545 
_cell_angle_alpha                 90.17542980628195 
_cell_angle_beta                  89.86948158678351 
_cell_angle_gamma                 89.32058196955214 
loop_ 
_atom_site_label 
_atom_site_type_symbol 
_atom_site_fract_x 
_atom_site_fract_y 
_atom_site_fract_z 
_atom_site_charge 
O1          O  0.39484976  0.85286470  0.79128663    -0.57200
C2          C  0.32902607  0.90707395  0.88551704     0.75500
O3          O  0.44547744  0.82291517  0.92976003    -0.58300
C4          C  0.42815099  0.83510358  0.78321993     0.75400
C5          C  0.44911472  0.94410653  0.92425315     0.77800
Cd6        Cd  0.40957498  0.87514788  0.87969292     1.37500
O7          O  0.35474188  0.92347489  0.85671734    -0.57100
O8          O  0.44633558  0.94003707  0.87613509    -0.56000
C9          C  0.41348765  0.80568098  0.94380492     0.77800
O10         O  0.43705038  0.91493332  0.95039810    -0.58300
O11         O  0.34038091  0.87587617  0.90885814    -0.56800
O12         O  0.45448762  0.83871632  0.81782401    -0.56800
O13         O  0.38050728  0.82164151  0.92994881    -0.55900
O14         O  0.37286098  0.64418277  0.07947755    -0.57200
C15         C  0.30604998  0.55428319  0.14437771     0.75500
O16         O  0.30455074  0.55125859  0.98811813    -0.58300
C17         C  0.38335946  0.65404285  0.03455919     0.75400
C18         C  0.42500960  0.53271482  0.03381741     0.77800
Cd19       Cd  0.35175883  0.57636977  0.05439476     1.37500
O20         O  0.32882200  0.58440248  0.14455949    -0.57100
O21         O  0.42123751  0.55450624  0.07315979    -0.56000
C22         C  0.28575563  0.58438865  0.98476610     0.77800
O23         O  0.39321650  0.52722434  0.00805882    -0.58300
O24         O  0.30750596  0.53257608  0.10469198    -0.56800
O25         O  0.38032399  0.62753859  0.00021412    -0.56800
O26         O  0.29798821  0.61271420  0.01255639    -0.55900
O27         O  0.07297421  0.69189734  0.83701340    -0.57200
C28         C  0.13049857  0.63046245  0.91807496     0.75500
O29         O  0.01885889  0.72566063  0.96087478    -0.58300
C30         C  0.03899351  0.69818130  0.81691112     0.75400
C31         C  0.01031173  0.59874155  0.96483355     0.77800
Cd32       Cd  0.05140843  0.66611049  0.91941435     1.37500
O33         O  0.12426190  0.66659329  0.93035126    -0.57100
O34         O  0.01052159  0.60465868  0.91704124    -0.56000
C35         C  0.05010756  0.73533634  0.98566103     0.77800
O36         O  0.02517205  0.62647059  0.99158446    -0.58300
O37         O  0.10019283  0.61103379  0.90319493    -0.56800
O38         O  0.00881719  0.68883625  0.84412888    -0.56800
O39         O  0.07971214  0.71135723  0.98217805    -0.55900
O40         O  0.17410573  0.00972577  0.11104834    -0.57200
C41         C  0.09513087  0.88765955  0.06659593     0.75500
O42         O  0.08151941  0.99310818  0.99599977    -0.58300
C43         C  0.17339406  0.98975732  0.15197369     0.75400
C44         C  0.18639348  0.96076417  0.98399496     0.77800
Cd45       Cd  0.12615485  0.96781349  0.06304871     1.37500
O46         O  0.07234942  0.91771212  0.07443739    -0.57100
O47         O  0.16946111  0.93174978  0.00576898    -0.56000
C48         C  0.05633880  0.01116232  0.02443169     0.77800
O49         O  0.17449751  0.99527317  0.99786612    -0.58300
O50         O  0.13234464  0.89463947  0.06243355    -0.56800
O51         O  0.14686798  0.96292060  0.15447958    -0.56800
O52         O  0.06487494  0.01187108  0.07171009    -0.55900
O53         O  0.09592097  0.61976574  0.34109677    -0.57200
C54         C  0.18116592  0.54208917  0.29851456     0.75500
O55         O  0.17759452  0.55031936  0.45158385    -0.58300
C56         C  0.07882383  0.63185069  0.38185179     0.75400
C57         C  0.06624722  0.50740350  0.41866298     0.77800
Cd58       Cd  0.12749381  0.56064736  0.38349500     1.37500
O59         O  0.14783025  0.56009607  0.29159438    -0.57100
O60         O  0.06675682  0.51957317  0.37287672    -0.56000
C61         C  0.18689124  0.58690511  0.45451090     0.77800
O62         O  0.09753422  0.51426322  0.44462691    -0.58300
O63         O  0.18727075  0.52879509  0.34311203    -0.56800
O64         O  0.08462866  0.61114973  0.42153449    -0.56800
O65         O  0.16750507  0.61062988  0.42595621    -0.55900
O66         O  0.10683581  0.88322869  0.56154798    -0.57200
C67         C  0.03715575  0.79203449  0.62968315     0.75500
O68         O  0.01485120  0.88400139  0.47676727    -0.58300
C69         C  0.13297652  0.86746896  0.53226341     0.75400
C70         C  0.03940509  0.78085689  0.45709909     0.77800
Cd71       Cd  0.05148263  0.83897259  0.53622034     1.37500
O72         O  0.07068908  0.79445073  0.60691004    -0.57100
O73         O  0.07278062  0.79789164  0.46417671    -0.56000
C74         C  0.01653827  0.91505102  0.50426462     0.77800
O75         O  0.01016085  0.79232405  0.48511721    -0.58300
O76         O  0.00912016  0.81337463  0.61074429    -0.56800
O77         O  0.12221973  0.83658548  0.50800458    -0.56800
O78         O  0.02965823  0.90955066  0.54923477    -0.55900
O79         O  0.32239604  0.96561648  0.30465661    -0.57200
C80         C  0.39274670  0.88835613  0.38211606     0.75500
O81         O  0.37656641  0.00178531  0.45791631    -0.58300
C82         C  0.29105133  0.98622823  0.31459230     0.75400
C83         C  0.28379249  0.92710280  0.46126516     0.77800
Cd84       Cd  0.34410119  0.95864249  0.39443012     1.37500
O85         O  0.37385951  0.90252937  0.34404220    -0.57100
O86         O  0.29898319  0.90717207  0.42472083    -0.56000
C87         C  0.40626124  0.01078220  0.43005105     0.77800
O88         O  0.29766969  0.96180733  0.46846892    -0.58300
O89         O  0.38894952  0.90683516  0.42413082    -0.56800
O90         O  0.28733651  0.99827635  0.36025532    -0.56800
O91         O  0.40438687  0.00005461  0.38360097    -0.55900
O92         O  0.39792589  0.72562867  0.58852324    -0.57200
C93         C  0.33634577  0.64554967  0.52628260     0.75500
O94         O  0.45586747  0.72943441  0.48043483    -0.58300
C95         C  0.43021283  0.72421039  0.61403866     0.75400
C96         C  0.45841453  0.60864046  0.48692060     0.77800
Cd97       Cd  0.41598272  0.67788144  0.52313300     1.37500
O98         O  0.36472319  0.62983774  0.55173758    -0.57100
O99         O  0.44865588  0.61190876  0.53366317    -0.56000
C100        C  0.42947394  0.73779906  0.44699018     0.77800
O101        O  0.45146391  0.63854130  0.45887017    -0.58300
O102        O  0.34431549  0.67744447  0.50265421    -0.56800
O103        O  0.45641888  0.69865802  0.59961257    -0.56800
O104        O  0.39781737  0.71696203  0.44749699    -0.55900
O105        O  0.97157465  0.32830523  0.14065027    -0.57200
C106        C  0.85053570  0.41623181  0.09932150     0.75500
O107        O  0.96076986  0.41770654  0.03109726    -0.58300
C108        C  0.95053226  0.32650146  0.18095477     0.75400
C109        C  0.91689861  0.32492320  0.01094308     0.77800
Cd110      Cd  0.92712467  0.37760676  0.09595658     1.37500
O111        O  0.88171121  0.43432531  0.11403155    -0.57100
O112        O  0.88768160  0.33715764  0.03827393    -0.56000
C113        C  0.96806259  0.44734471  0.05960969     0.77800
O114        O  0.95143560  0.33799336  0.02240316    -0.58300
O115        O  0.85415706  0.37915733  0.09042294    -0.56800
O116        O  0.92112601  0.35075046  0.18387144    -0.56800
O117        O  0.96168369  0.44229497  0.10695856    -0.55900
O118        O  0.70861566  0.43723314  0.85573600    -0.57200
C119        C  0.62594155  0.36024618  0.90115832     0.75500
O120        O  0.69839569  0.48236571  0.96993245    -0.58300
C121        C  0.69810683  0.46496673  0.82577373     0.75400
C122        C  0.57942432  0.47867052  0.95231723     0.77800
Cd123      Cd  0.65275602  0.44155684  0.91543524     1.37500
O124        O  0.60597032  0.38951909  0.88366159    -0.57100
O125        O  0.59086489  0.48245817  0.90635871    -0.56000
C126        C  0.70817567  0.45315702  0.99832706     0.77800
O127        O  0.60356196  0.46017475  0.98149896    -0.58300
O128        O  0.65957420  0.36859924  0.92082341    -0.56800
O129        O  0.66529212  0.48281916  0.83657329    -0.56800
O130        O  0.69160152  0.42015967  0.98870923    -0.55900
O131        O  0.59704094  0.10259125  0.07558929    -0.57200
C132        C  0.52583581  0.21572003  0.13003929     0.75500
O133        O  0.53830755  0.20368617  0.98110353    -0.58300
C134        C  0.62825425  0.12397367  0.07695909     0.75400
C135        C  0.50413666  0.09336325  0.01313310     0.77800
Cd136      Cd  0.55143750  0.15852534  0.05304758     1.37500
O137        O  0.54171084  0.18259004  0.14254747    -0.57100
O138        O  0.50808808  0.09848764  0.06096419    -0.56000
C139        C  0.57518268  0.20900475  0.97029360     0.77800
O140        O  0.51878845  0.12017740  0.98507204    -0.58300
O141        O  0.51626073  0.21931831  0.08360643    -0.56800
O142        O  0.62290062  0.16124510  0.07245859    -0.56800
O143        O  0.60020662  0.18761581  0.99456797    -0.55900
O144        O  0.88426562  0.16287054  0.87987060    -0.57200
C145        C  0.78185280  0.09722057  0.81661476     0.75500
O146        O  0.89522900  0.07008265  0.89082732    -0.58300
C147        C  0.86539434  0.19151855  0.90132844     0.75400
C148        C  0.77534839  0.09937901  0.98425270     0.77800
Cd149      Cd  0.83326980  0.11222293  0.90432947     1.37500
O150        O  0.78567534  0.13126367  0.83695882    -0.57100
O151        O  0.79122549  0.13302994  0.97663829    -0.56000
C152        C  0.90581261  0.07140987  0.93744967     0.77800
O153        O  0.78838696  0.07086761  0.95673943    -0.58300
O154        O  0.80505129  0.07002211  0.83359162    -0.56800
O155        O  0.83116344  0.18370881  0.91993421    -0.53600
O156        O  0.88143272  0.08901393  0.96748492    -0.55900
O157        O  0.64837584  0.12516676  0.64232948    -0.57200
C158        C  0.60229539  0.19050942  0.55333592     0.75500
O159        O  0.67984567  0.07054384  0.51111773    -0.58300
C160        C  0.66486048  0.09225557  0.65365077     0.75400
C161        C  0.55504903  0.06874655  0.51762561     0.77800
Cd162      Cd  0.62629282  0.10810481  0.55645778     1.37500
O163        O  0.57984176  0.16446582  0.57334591    -0.57100
O164        O  0.55696405  0.08038945  0.56368073    -0.56000
C165        C  0.69214657  0.10015155  0.48549221     0.77800
O166        O  0.58663314  0.07314277  0.49133665    -0.58300
O167        O  0.63615849  0.17846906  0.53663426    -0.56800
O168        O  0.66087996  0.06445816  0.62116810    -0.56800
O169        O  0.67259769  0.13249826  0.49139476    -0.55900
O170        O  0.86469457  0.13017290  0.37135309    -0.57200
C171        C  0.95365284  0.20043982  0.33138723     0.75500
O172        O  0.94963526  0.18960828  0.48582052    -0.58300
C173        C  0.85061423  0.11296854  0.41054236     0.75400
C174        C  0.97694885  0.07653234  0.43648872     0.77800
Cd175      Cd  0.92984003  0.14689911  0.41286721     1.37500
O176        O  0.96648474  0.20454723  0.37661682    -0.57100
O177        O  0.96518185  0.08355540  0.39125365    -0.56000
C178        C  0.91509947  0.20595260  0.48990680     0.77800
O179        O  0.97186006  0.10468146  0.46817618    -0.58300
O180        O  0.93330235  0.16936036  0.32287053    -0.56800
O181        O  0.87357801  0.11052688  0.44891440    -0.56800
O182        O  0.88817761  0.19359670  0.45968399    -0.55900
O183        O  0.62681272  0.37918197  0.37367519    -0.57200
C184        C  0.53013535  0.33906061  0.28455052     0.75500
O185        O  0.58884284  0.34952778  0.43433776    -0.58300
C186        C  0.63425717  0.41621779  0.37449027     0.75400
C187        C  0.51127976  0.45818973  0.40123428     0.77800
Cd188      Cd  0.55378427  0.38763964  0.37025509     1.37500
O189        O  0.56040701  0.36165138  0.28207686    -0.57100
O190        O  0.52419955  0.45460587  0.35574457    -0.56000
C191        C  0.55849757  0.33313833  0.45424177     0.77800
O192        O  0.51513917  0.42804101  0.42978380    -0.58300
O193        O  0.50820226  0.34293540  0.32379008    -0.56800
O194        O  0.60495226  0.43966500  0.36550529    -0.56800
O195        O  0.52452689  0.34359118  0.43644354    -0.55900
O196        O  0.82925710  0.43975102  0.64989128    -0.57200
C197        C  0.86252003  0.35355610  0.57120223     0.75500
O198        O  0.79623088  0.47170450  0.49708592    -0.58300
C199        C  0.80103984  0.46534742  0.64962478     0.75400
C200        C  0.91499967  0.46581482  0.51521506     0.77800
Cd201      Cd  0.84094919  0.43632642  0.55790614     1.37500
O202        O  0.82944075  0.36469834  0.55173992    -0.57100
O203        O  0.90430932  0.47514713  0.56023866    -0.56000
C204        C  0.78077677  0.43970721  0.48035579     0.77800
O205        O  0.88941625  0.44665821  0.48961733    -0.58300
O206        O  0.88454127  0.38096104  0.58885588    -0.56800
O207        O  0.79263188  0.48018830  0.60646526    -0.56800
O208        O  0.79343860  0.40728914  0.49957850    -0.55900
C209        C  0.71605030  0.46737713  0.45004354    -0.05100
C210        C  0.74770117  0.43982221  0.44276514     0.00800
C211        C  0.74467443  0.41014315  0.40427353    -0.07800
C212        C  0.70783590  0.40598562  0.37857759    -0.05100
C213        C  0.67439629  0.43049403  0.39022071     0.00800
C214        C  0.67889993  0.46299547  0.42489023    -0.07700
C215        C  0.64397301  0.49087838  0.43892818     0.62700
H216        H  0.71945230  0.49028218  0.47897806     0.13400
H217        H  0.70408542  0.38160947  0.35164162     0.13400
C218        C  0.77952705  0.38194636  0.39152152     0.62900
F219        F  0.65528522  0.51999192  0.47364229    -0.22200
F220        F  0.61309333  0.46929806  0.46087925    -0.19600
F221        F  0.62995652  0.51007046  0.39555446    -0.19200
F222        F  0.78291788  0.35281035  0.42872903    -0.19300
F223        F  0.81515524  0.40298265  0.38871698    -0.19600
F224        F  0.77388332  0.36317242  0.34483629    -0.22300
C225        C  0.91844384  0.30489850  0.56051175    -0.05100
C226        C  0.87682196  0.31153478  0.56756301     0.00800
C227        C  0.85010728  0.27905635  0.56211906    -0.07800
C228        C  0.86506744  0.24332448  0.54089710    -0.05100
C229        C  0.90558734  0.23887997  0.52607903     0.00800
C230        C  0.93355846  0.26877947  0.53988457    -0.07700
C231        C  0.97852235  0.26402315  0.52993766     0.62700
H232        H  0.93880165  0.32950961  0.56684657     0.13400
H233        H  0.84437122  0.21924930  0.53267221     0.13400
C234        C  0.80607661  0.28170913  0.57811644     0.62900
F235        F  0.00006440  0.29605118  0.54880266    -0.22200
F236        F  0.98573451  0.26132343  0.47787230    -0.19600
F237        F  0.99284397  0.22987326  0.55384487    -0.19200
F238        F  0.78417338  0.30425581  0.54350088    -0.19300
F239        F  0.80310383  0.29883940  0.62624493    -0.19600
F240        F  0.78882177  0.24424583  0.58043323    -0.22300
C241        C  0.60306477  0.29833970  0.51501432    -0.05100
C242        C  0.56422952  0.30194489  0.49385581     0.00800
C243        C  0.53488671  0.27283933  0.50620501    -0.07800
C244        C  0.54779261  0.23795737  0.53157098    -0.05100
C245        C  0.58830355  0.23198123  0.54516791     0.00800
C246        C  0.61536544  0.26416821  0.54168640    -0.07700
C247        C  0.65775217  0.26243147  0.56331085     0.62700
H248        H  0.62497402  0.32168616  0.50828401     0.13400
H249        H  0.52696540  0.21346296  0.53664191     0.13400
C250        C  0.49095917  0.27689469  0.49057549     0.62900
F251        F  0.67016604  0.30026669  0.57753683    -0.22200
F252        F  0.68414736  0.24750923  0.52673957    -0.19600
F253        F  0.65931211  0.23853746  0.60640257    -0.19200
F254        F  0.48762826  0.27460044  0.43795637    -0.19300
F255        F  0.47545296  0.31310648  0.50770732    -0.19600
F256        F  0.46762938  0.24694349  0.51141305    -0.22300
C257        C  0.75760087  0.06761252  0.46575908    -0.05100
C258        C  0.72925957  0.09769077  0.45365561     0.00800
C259        C  0.73906455  0.12625315  0.41548619    -0.07800
C260        C  0.77872232  0.12679106  0.39623766    -0.05100
C261        C  0.80830994  0.10008562  0.41413329     0.00800
C262        C  0.79683987  0.06785592  0.44566226    -0.07700
C263        C  0.82561964  0.03448759  0.46113570     0.62700
H264        H  0.74991650  0.04489013  0.49329898     0.13400
H265        H  0.78783047  0.15085930  0.37143513     0.13400
C266        C  0.70957388  0.15840695  0.39788162     0.62900
F267        F  0.80593269  0.99823887  0.45956154    -0.22200
F268        F  0.83896890  0.04114764  0.51049035    -0.19600
F269        F  0.85848844  0.03162277  0.42854053    -0.19200
F270        F  0.70689376  0.18819987  0.43459508    -0.19300
F271        F  0.67188932  0.14231225  0.38964151    -0.19600
F272        F  0.72195165  0.17557564  0.35239922    -0.22300
C273        C  0.71498062  0.11410264  0.78086790    -0.05100
C274        C  0.75021212  0.09041681  0.77716556     0.00800
C275        C  0.75370281  0.06218974  0.73665915    -0.07800
C276        C  0.72359556  0.06181178  0.69851089    -0.05100
C277        C  0.69009310  0.08796762  0.70027622     0.00800
C278        C  0.68435927  0.11269748  0.74388024    -0.07700
C279        C  0.64629390  0.13777811  0.75176646     0.62700
H280        H  0.71166780  0.13442736  0.81299787     0.13400
H281        H  0.72702643  0.04226193  0.66560040     0.13400
C282        C  0.78948944  0.03367482  0.73245642     0.62900
F283        F  0.64172341  0.14921648  0.80241987    -0.22200
F284        F  0.61264114  0.11600765  0.73839897    -0.19600
F285        F  0.64799479  0.17197749  0.72229164    -0.19200
F286        F  0.78985992  0.00814058  0.77397957    -0.19300
F287        F  0.82493487  0.05503845  0.73125394    -0.19600
F288        F  0.78791829  0.01049619  0.68852706    -0.22300
C289        C  0.53202715  0.31795682  0.19402316    -0.05100
C290        C  0.52251660  0.30842254  0.24475305     0.00800
C291        C  0.51120957  0.26873627  0.25706006    -0.07800
C292        C  0.51095616  0.23971317  0.21789284    -0.05100
C293        C  0.52119567  0.24909173  0.16725985     0.00800
C294        C  0.53158956  0.28906351  0.15480040    -0.07700
C295        C  0.54423552  0.30113714  0.10106694     0.62700
H296        H  0.54080636  0.34826684  0.18563097     0.13400
H297        H  0.50352516  0.20915693  0.22665742     0.13400
C298        C  0.50122225  0.25638244  0.31153996     0.62900
F299        F  0.55637432  0.34057861  0.09895048    -0.22200
F300        F  0.51210936  0.29690806  0.06794355    -0.19600
F301        F  0.57623829  0.27742968  0.08466046    -0.19200
F302        F  0.46663531  0.27622541  0.32771969    -0.19300
F303        F  0.53289345  0.26556604  0.34374923    -0.19600
F304        F  0.49445714  0.21574537  0.31541029    -0.22300
C305        C  0.67445155  0.07317533  0.04321008    -0.05100
C306        C  0.66921196  0.10650858  0.07523721     0.00800
C307        C  0.70308662  0.12936544  0.08877116    -0.07800
C308        C  0.73877150  0.12398833  0.06069372    -0.05100
C309        C  0.74191735  0.09517159  0.02155745     0.00800
C310        C  0.71030235  0.06720083  0.01524115    -0.07700
C311        C  0.71231367  0.03360331  0.97603849     0.62700
H312        H  0.64842505  0.05503722  0.03473704     0.13400
H313        H  0.76383378  0.14395844  0.06785150     0.13400
C314        C  0.70223959  0.16041845  0.13110517     0.62900
F315        F  0.67850237  0.00972819  0.97786348    -0.22200
F316        F  0.74555447  0.00942594  0.98553712    -0.19600
F317        F  0.71489937  0.04937666  0.92726368    -0.19200
F318        F  0.66707489  0.15909692  0.15965750    -0.19300
F319        F  0.70600176  0.19815359  0.11030092    -0.19600
F320        F  0.73419945  0.15340715  0.16397177    -0.22300
C321        C  0.76566080  0.46908963  0.78778128    -0.05100
C322        C  0.72400747  0.47486951  0.78127944     0.00800
C323        C  0.70892491  0.48501680  0.73218845    -0.07800
C324        C  0.73600982  0.48490307  0.69043690    -0.05100
C325        C  0.77704581  0.47463160  0.69636168     0.00800
C326        C  0.79262193  0.46892740  0.74636933    -0.07700
C327        C  0.83725231  0.46182238  0.75657630     0.62700
H328        H  0.77690127  0.46260245  0.82588818     0.13400
H329        H  0.72466920  0.49032287  0.65208988     0.13400
C330        C  0.66444843  0.49380112  0.72329341     0.62900
F331        F  0.84632199  0.46581453  0.80803006    -0.22200
F332        F  0.85986622  0.48940879  0.72999011    -0.19600
F333        F  0.84835633  0.42354698  0.74170780    -0.19200
F334        F  0.65296816  0.52751435  0.75068067    -0.19300
F335        F  0.64163443  0.46169584  0.73892243    -0.19600
F336        F  0.65610671  0.50073919  0.67214897    -0.22300
C337        C  0.63947422  0.28763611  0.90641021    -0.05100
C338        C  0.61068259  0.31865309  0.90234220     0.00800
C339        C  0.56917500  0.30963769  0.90811939    -0.07800
C340        C  0.55867590  0.27094323  0.92370224    -0.05100
C341        C  0.58806545  0.24192767  0.93600710     0.00800
C342        C  0.62903895  0.24920384  0.92324891    -0.07700
C343        C  0.66224983  0.21775723  0.92909997     0.62700
H344        H  0.67079554  0.29455079  0.90005918     0.13400
H345        H  0.52745096  0.26448438  0.93132381     0.13400
C346        C  0.53603482  0.34112475  0.90265098     0.62900
F347        F  0.69738203  0.22890463  0.90446664    -0.22200
F348        F  0.65005608  0.18197130  0.90784001    -0.19600
F349        F  0.67133101  0.21227646  0.98024597    -0.19200
F350        F  0.53729958  0.35746791  0.85414577    -0.19300
F351        F  0.54108652  0.37083514  0.93893958    -0.19600
F352        F  0.49798642  0.32533219  0.90959371    -0.22300
C353        C  0.95911876  0.27211013  0.30843587    -0.05100
C354        C  0.95946289  0.23197758  0.29201480     0.00800
C355        C  0.96219722  0.22353551  0.23886283    -0.07800
C356        C  0.96163427  0.25561536  0.20403450    -0.05100
C357        C  0.95780190  0.29548741  0.22045635     0.00800
C358        C  0.95791365  0.30412280  0.27350289    -0.07700
C359        C  0.95712655  0.34692807  0.29294939     0.62700
H360        H  0.95758923  0.27835058  0.34928415     0.13400
H361        H  0.96184218  0.24954016  0.16309886     0.13400
C362        C  0.96492756  0.18098636  0.21869185     0.62900
F363        F  0.96421664  0.34891352  0.34507878    -0.22200
F364        F  0.91986970  0.36433561  0.28351117    -0.19600
F365        F  0.98671178  0.36860639  0.26844084    -0.19200
F366        F  0.99316786  0.15927795  0.24631948    -0.19300
F367        F  0.92769739  0.16305416  0.22276873    -0.19600
F368        F  0.97651402  0.17989850  0.16777771    -0.22300
C369        C  0.87211781  0.29714638  0.94529209    -0.05100
C370        C  0.90997580  0.29586449  0.96920126     0.00800
C371        C  0.93737798  0.26425036  0.95726760    -0.07800
C372        C  0.92336905  0.23199810  0.92762273    -0.05100
C373        C  0.88345881  0.23112012  0.90973150     0.00800
C374        C  0.85898929  0.26583512  0.91411262    -0.07700
C375        C  0.81845638  0.27051941  0.88797579     0.62700
H376        H  0.85197649  0.32232858  0.95229899     0.13400
H377        H  0.94213706  0.20556790  0.92274234     0.13400
C378        C  0.97996476  0.26297532  0.97858622     0.62900
F379        F  0.81640666  0.30737003  0.86412242    -0.22200
F380        F  0.78796730  0.26849625  0.92403771    -0.19600
F381        F  0.81246378  0.24156440  0.85093920    -0.19200
F382        F  0.97878885  0.26272451  0.03152792    -0.19300
F383        F  0.00083612  0.29607940  0.96192840    -0.19600
F384        F  0.00110243  0.22925383  0.96260278    -0.22300
C385        C  0.77449615  0.47751122  0.02692287    -0.05100
C386        C  0.73966579  0.45571934  0.03811429     0.00800
C387        C  0.73974752  0.42956617  0.08062682    -0.07800
C388        C  0.77666401  0.41939931  0.10328281    -0.05100
C389        C  0.81253126  0.43722468  0.08756273     0.00800
C390        C  0.81132835  0.46884067  0.05146972    -0.07700
C391        C  0.84935651  0.49051149  0.03539429     0.62700
H392        H  0.77373662  0.49831184  0.99522197     0.13400
H393        H  0.77780369  0.39589425  0.13181948     0.13400
C394        C  0.70199127  0.40988249  0.10062724     0.62900
F395        F  0.84137648  0.52018096  0.99990138    -0.22200
F396        F  0.87655214  0.46373120  0.01367318    -0.19600
F397        F  0.86672328  0.50827415  0.07770279    -0.19200
F398        F  0.69963363  0.37151045  0.08115621    -0.19300
F399        F  0.66763018  0.43131183  0.08739254    -0.19600
F400        F  0.70324573  0.40797000  0.15351649    -0.22300
C401        C  0.51590169  0.53142262  0.40759366    -0.05100
C402        C  0.49553919  0.49650301  0.42140923     0.00800
C403        C  0.46301890  0.49872103  0.45656032    -0.07800
C404        C  0.45357677  0.53580390  0.47910118    -0.05100
C405        C  0.47383742  0.57072790  0.46525509     0.00800
C406        C  0.50516718  0.56887839  0.42832943    -0.07700
C407        C  0.52762955  0.60596738  0.41157645     0.62700
H408        H  0.54070469  0.52904097  0.38053501     0.13400
H409        H  0.42905764  0.53808651  0.50650353     0.13400
C410        C  0.43658121  0.46290203  0.46742537     0.62900
F411        F  0.56056011  0.59653344  0.38099143    -0.22200
F412        F  0.54144877  0.62643190  0.45402991    -0.19600
F413        F  0.50221027  0.63062129  0.38368728    -0.19200
F414        F  0.45771581  0.43436594  0.49491823    -0.19300
F415        F  0.42380713  0.44650447  0.42163812    -0.19600
F416        F  0.40264386  0.47350423  0.49553289    -0.22300
C417        C  0.48021965  0.01315326  0.43349206    -0.05100
C418        C  0.44329922  0.02860606  0.45155389     0.00800
C419        C  0.44313526  0.05702033  0.49189355    -0.07800
C420        C  0.48032644  0.06868481  0.51294686    -0.05100
C421        C  0.51731360  0.05292460  0.49506242     0.00800
C422        C  0.51727725  0.02419797  0.45497382    -0.07700
C423        C  0.55579164  0.00401412  0.43583363     0.62700
H424        H  0.47977510  0.99127072  0.40289208     0.13400
H425        H  0.48079524  0.09072513  0.54337799     0.13400
C426        C  0.40417891  0.07595849  0.51150311     0.62900
F427        F  0.54785057  0.97184840  0.40407276    -0.22200
F428        F  0.57802862  0.98981440  0.47682277    -0.19600
F429        F  0.57844824  0.03097916  0.40836752    -0.19200
F430        F  0.38172572  0.04790761  0.53739266    -0.19300
F431        F  0.38199941  0.09078752  0.47082276    -0.19600
F432        F  0.41137125  0.10730191  0.54484119    -0.22300
C433        C  0.39805951  0.81789934  0.35545117    -0.05100
C434        C  0.41572735  0.85055388  0.37997149     0.00800
C435        C  0.44893271  0.84398774  0.41281789    -0.07800
C436        C  0.45611885  0.80517928  0.43089049    -0.05100
C437        C  0.43332467  0.77289810  0.41302669     0.00800
C438        C  0.40818316  0.77864975  0.36976128    -0.07700
C439        C  0.39060711  0.74459340  0.33917737     0.62700
H440        H  0.37431563  0.82292771  0.32765739     0.13400
H441        H  0.47775682  0.80074499  0.46152329     0.13400
C442        C  0.47610474  0.87731221  0.43076079     0.62900
F443        F  0.39351393  0.75299502  0.28744970    -0.22200
F444        F  0.35042248  0.74010797  0.35186143    -0.19600
F445        F  0.41121288  0.70903325  0.34767932    -0.19200
F446        F  0.46907386  0.88525628  0.48197794    -0.19300
F447        F  0.47016223  0.91200074  0.40292784    -0.19600
F448        F  0.51598276  0.86563645  0.42442387    -0.22300
C449        C  0.01985577  0.98889450  0.51364624    -0.05100
C450        C  0.00638169  0.95604829  0.48473226     0.00800
C451        C  0.98632132  0.96360039  0.43750354    -0.07800
C452        C  0.97953145  0.00349777  0.42243958    -0.05100
C453        C  0.99168241  0.03615659  0.45229974     0.00800
C454        C  0.01318045  0.02877627  0.49831030    -0.07700
C455        C  0.02917919  0.06245768  0.53147195     0.62700
H456        H  0.03587252  0.98315588  0.54903046     0.13400
H457        H  0.96323327  0.00953496  0.38728868     0.13400
C458        C  0.97131001  0.93028585  0.40300169     0.62900
F459        F  0.05643751  0.04856703  0.56753572    -0.22200
F460        F  0.99760560  0.08098950  0.55725084    -0.19600
F461        F  0.04887727  0.09011067  0.50142273    -0.19200
F462        F  0.94594462  0.90561346  0.43024391    -0.19300
F463        F  0.00372241  0.90840606  0.38407027    -0.19600
F464        F  0.94986986  0.94487067  0.36147192    -0.22300
C465        C  0.20583824  0.85745459  0.51654334    -0.05100
C466        C  0.17367107  0.88440738  0.52490692     0.00800
C467        C  0.18026685  0.92612604  0.51996584    -0.07800
C468        C  0.21850583  0.93904388  0.50397305    -0.05100
C469        C  0.24932198  0.91175215  0.49096654     0.00800
C470        C  0.24385986  0.87045748  0.50010165    -0.07700
C471        C  0.27700828  0.83965068  0.49024103     0.62700
H472        H  0.20052847  0.82583800  0.52073508     0.13400
H473        H  0.22350956  0.97039214  0.49729093     0.13400
C474        C  0.14646306  0.95685640  0.52662947     0.62900
F475        F  0.27043112  0.80501411  0.51774510    -0.22200
F476        F  0.31411692  0.85431705  0.50489828    -0.19600
F477        F  0.27802947  0.83004783  0.43873933    -0.19200
F478        F  0.13144935  0.95551486  0.57597177    -0.19300
F479        F  0.11589255  0.94901817  0.49220347    -0.19600
F480        F  0.15950128  0.99543570  0.51798728    -0.22300
C481        C  0.02502024  0.49638917  0.49612898    -0.05100
C482        C  0.02956765  0.49066444  0.44301676     0.00800
C483        C  0.99730540  0.47413731  0.41489491    -0.07800
C484        C  0.96068532  0.46710960  0.44026288    -0.05100
C485        C  0.95518097  0.47516387  0.49278243     0.00800
C486        C  0.98850446  0.48892641  0.52178924    -0.07700
C487        C  0.98601862  0.49617638  0.57923693     0.62700
H488        H  0.05005683  0.50868906  0.51743025     0.13400
H489        H  0.93554048  0.45571339  0.41837978     0.13400
C490        C  0.00101106  0.46376555  0.35845039     0.62900
F491        F  0.02271238  0.50744513  0.59958557    -0.22200
F492        F  0.97451534  0.46154802  0.60384406    -0.19600
F493        F  0.95840927  0.52649310  0.58947277    -0.19200
F494        F  0.03699751  0.44358930  0.34932990    -0.19300
F495        F  0.99951738  0.49829824  0.32957394    -0.19600
F496        F  0.97003399  0.43934100  0.34244904    -0.22300
C497        C  0.25360615  0.57360950  0.49200174    -0.05100
C498        C  0.22122853  0.60058735  0.48573961     0.00800
C499        C  0.22494381  0.64058157  0.50331926    -0.07800
C500        C  0.26268520  0.65312933  0.52109912    -0.05100
C501        C  0.29626948  0.62727760  0.52154509     0.00800
C502        C  0.29153166  0.58637470  0.50888070    -0.07700
C503        C  0.32689903  0.55702662  0.50873375     0.62700
H504        H  0.25001062  0.54307433  0.47940525     0.13400
H505        H  0.26693343  0.68406624  0.53179563     0.13400
C506        C  0.18991944  0.67036577  0.50261071     0.62900
F507        F  0.31572273  0.51924236  0.49275329    -0.22200
F508        F  0.34246261  0.55362904  0.55759001    -0.19600
F509        F  0.35656308  0.57029251  0.47580093    -0.19200
F510        F  0.15609565  0.65329748  0.52413756    -0.19300
F511        F  0.18155258  0.68190389  0.45296914    -0.19600
F512        F  0.19853110  0.70456266  0.53031504    -0.22300
C513        C  0.07216819  0.70340240  0.36163278    -0.05100
C514        C  0.05573895  0.66967255  0.38511929     0.00800
C515        C  0.02369226  0.67465682  0.42065833    -0.07800
C516        C  0.01517198  0.71313507  0.43945281    -0.05100
C517        C  0.03653794  0.74633921  0.42200167     0.00800
C518        C  0.06210007  0.74209101  0.37871740    -0.07700
C519        C  0.08208225  0.77736229  0.35332739     0.62700
H520        H  0.09574723  0.69951925  0.33306500     0.13400
H521        H  0.99434274  0.71658738  0.47142187     0.13400
C522        C  0.00071388  0.63991046  0.44316783     0.62900
F523        F  0.08549120  0.77077650  0.30114833    -0.22200
F524        F  0.12021661  0.78232898  0.37350365    -0.19600
F525        F  0.05965773  0.81211229  0.36038842    -0.19200
F526        F  0.01556112  0.63138494  0.49138419    -0.19300
F527        F  0.00367580  0.60602420  0.41280564    -0.19600
F528        F  0.96021497  0.64992453  0.44733431    -0.22300
C529        C  0.00470919  0.01232595  0.95587878    -0.05100
C530        C  0.01835334  0.02836036  0.00261699     0.00800
C531        C  0.99568743  0.05961783  0.02604680    -0.07800
C532        C  0.95907282  0.07179036  0.00346225    -0.05100
C533        C  0.94505449  0.05540508  0.95714269     0.00800
C534        C  0.96900842  0.02588144  0.93194816    -0.07700
C535        C  0.95765100  0.00873532  0.88008866     0.62700
H536        H  0.02242410  0.98889881  0.93794083     0.13400
H537        H  0.94131587  0.09497420  0.02177605     0.13400
C538        C  0.01028317  0.08133528  0.07353902     0.62900
F539        F  0.98455605  0.97929732  0.86394535    -0.22200
F540        F  0.95785091  0.03877268  0.84384305    -0.19600
F541        F  0.91975290  0.99200463  0.88251032    -0.19200
F542        F  0.04963615  0.09348234  0.06643642    -0.19300
F543        F  0.00820697  0.05633348  0.11545043    -0.19600
F544        F  0.98715068  0.11513187  0.08406909    -0.22300
C545        C  0.19036289  0.99189764  0.24443901    -0.05100
C546        C  0.20339585  0.99546933  0.19353784     0.00800
C547        C  0.24527505  0.99949203  0.18321052    -0.07800
C548        C  0.27266937  0.99822793  0.22427275    -0.05100
C549        C  0.25976177  0.99371215  0.27503401     0.00800
C550        C  0.21776564  0.99137803  0.28566854    -0.07700
C551        C  0.20177869  0.98651773  0.33988405     0.62700
H552        H  0.15846192  0.98870574  0.25149805     0.13400
H553        H  0.30470082  0.99998031  0.21696689     0.13400
C554        C  0.26142992  0.00353437  0.12902111     0.62900
F555        F  0.16024824  0.98277433  0.34098744    -0.22200
F556        F  0.21147321  0.01970214  0.36883777    -0.19600
F557        F  0.21843881  0.95260708  0.36194925    -0.19200
F558        F  0.24783912  0.03922084  0.10841622    -0.19300
F559        F  0.24851996  0.97198314  0.09911865    -0.19600
F560        F  0.30318551  0.00354067  0.12755711    -0.22300
C561        C  0.96787252  0.49394188  0.98642017    -0.05100
C562        C  0.97985432  0.48644586  0.03715467     0.00800
C563        C  0.00010476  0.51676812  0.06459941    -0.07800
C564        C  0.00784264  0.55330260  0.03985566    -0.05100
C565        C  0.99647227  0.56062653  0.98869756     0.00800
C566        C  0.97542992  0.53041269  0.96164410    -0.07700
C567        C  0.96038492  0.53613331  0.90715842     0.62700
H568        H  0.95195944  0.47079467  0.96606142     0.13400
H569        H  0.02383200  0.57630501  0.06036665     0.13400
C570        C  0.01500898  0.51033448  0.11894871     0.62900
F571        F  0.93656194  0.50478309  0.89109470    -0.22200
F572        F  0.99275438  0.53834395  0.87386233    -0.19600
F573        F  0.93730544  0.57077069  0.90419575    -0.19200
F574        F  0.03827212  0.47576660  0.12104971    -0.19300
F575        F  0.98259523  0.50722955  0.15204015    -0.19600
F576        F  0.03850375  0.54163588  0.13583444    -0.22300
C577        C  0.00247555  0.74297847  0.75588811    -0.05100
C578        C  0.03539783  0.71720597  0.76545606     0.00800
C579        C  0.06553713  0.71244609  0.72718041    -0.07800
C580        C  0.06359448  0.73652336  0.68317002    -0.05100
C581        C  0.03263021  0.76505124  0.67531655     0.00800
C582        C  0.00032307  0.76694761  0.71132280    -0.07700
C583        C  0.96423860  0.79464799  0.70408937     0.62700
H584        H  0.97925990  0.74552975  0.78480105     0.13400
H585        H  0.08725233  0.73377085  0.65493225     0.13400
C586        C  0.09989005  0.68210013  0.73214309     0.62900
F587        F  0.93653574  0.79135525  0.74357268    -0.22200
F588        F  0.94472783  0.78521018  0.65899218    -0.19600
F589        F  0.97687647  0.83385986  0.70254770    -0.19200
F590        F  0.08483427  0.64537274  0.74648239    -0.19300
F591        F  0.12733202  0.69496072  0.76820548    -0.19600
F592        F  0.12046439  0.67675856  0.68641422    -0.22300
C593        C  0.08589896  0.77519583  0.05074753    -0.05100
C594        C  0.05407777  0.77327730  0.01522758     0.00800
C595        C  0.03159576  0.80865387  0.00426113    -0.07800
C596        C  0.04422536  0.84502442  0.02594548    -0.05100
C597        C  0.07875919  0.84732331  0.05679039     0.00800
C598        C  0.09899853  0.81166491  0.07136400    -0.07700
C599        C  0.13478605  0.81185823  0.10755316     0.62700
H600        H  0.10223711  0.74801207  0.05999814     0.13400
H601        H  0.02886766  0.87261287  0.01576677     0.13400
C602        C  0.99587867  0.80889049  0.96792049     0.62900
F603        F  0.14435047  0.77376927  0.12464483    -0.22200
F604        F  0.12594755  0.83529476  0.14991505    -0.19600
F605        F  0.16828596  0.82675125  0.08283812    -0.19200
F606        F  0.96655889  0.78347731  0.98606828    -0.19300
F607        F  0.00817031  0.79671435  0.91963677    -0.19600
F608        F  0.97857021  0.84658064  0.96333795    -0.22300
C609        C  0.46926458  0.51279358  0.96228270    -0.05100
C610        C  0.46476504  0.51744046  0.01543750     0.00800
C611        C  0.49840469  0.51006076  0.04767793    -0.07800
C612        C  0.53528183  0.49831358  0.02503539    -0.05100
C613        C  0.53983620  0.49387863  0.97171517     0.00800
C614        C  0.50602807  0.50115469  0.93958401    -0.07700
C615        C  0.50787588  0.49608933  0.88174416     0.62700
H616        H  0.44350431  0.51924075  0.93807928     0.13400
H617        H  0.56119434  0.49254544  0.04922152     0.13400
C618        C  0.49553179  0.51339101  0.10561465     0.62900
F619        F  0.47061707  0.50220480  0.85902530    -0.22200
F620        F  0.52059146  0.45768647  0.86956531    -0.19600
F621        F  0.53418178  0.52350405  0.86108987    -0.19200
F622        F  0.46401768  0.49039722  0.12320119    -0.19300
F623        F  0.48926183  0.55280861  0.11986882    -0.19600
F624        F  0.53047109  0.50011194  0.12939294    -0.22300
C625        C  0.23661888  0.53804441  0.17023340    -0.05100
C626        C  0.27617279  0.54671230  0.18558691     0.00800
C627        C  0.28490027  0.55008105  0.23847255    -0.07800
C628        C  0.25317568  0.54572342  0.27399169    -0.05100
C629        C  0.21306420  0.53976045  0.25840562     0.00800
C630        C  0.20470329  0.53496150  0.20558823    -0.07700
C631        C  0.16236524  0.52757802  0.18603993     0.62700
H632        H  0.23032974  0.53582954  0.12953454     0.13400
H633        H  0.25921928  0.54911946  0.31459811     0.13400
C634        C  0.32732195  0.55810618  0.25742165     0.62900
F635        F  0.16284234  0.51346069  0.13615130    -0.22200
F636        F  0.14035483  0.56293520  0.18727641    -0.19600
F637        F  0.14341150  0.49935907  0.21595295    -0.19200
F638        F  0.33921298  0.59574956  0.24237928    -0.19300
F639        F  0.35376464  0.52977340  0.23749768    -0.19600
F640        F  0.32972879  0.55649940  0.31028463    -0.22300
C641        C  0.21752628  0.56391031  0.96041900    -0.05100
C642        C  0.24972450  0.59003205  0.95274857     0.00800
C643        C  0.24354795  0.62555537  0.92446694    -0.07800
C644        C  0.20408450  0.63670566  0.91135019    -0.05100
C645        C  0.17115399  0.61244056  0.92309468     0.00800
C646        C  0.17794358  0.57446199  0.94583048    -0.07700
C647        C  0.14349573  0.54640523  0.95779781     0.62700
H648        H  0.22306095  0.53670519  0.98176639     0.13400
H649        H  0.19880345  0.66526989  0.89292607     0.13400
C650        C  0.27739747  0.65325007  0.90916972     0.62900
F651        F  0.15672965  0.51224119  0.98271947    -0.22200
F652        F  0.12523485  0.53478890  0.91270039    -0.19600
F653        F  0.11538209  0.56537218  0.98899186    -0.19200
F654        F  0.31496438  0.63509194  0.91301666    -0.19300
F655        F  0.27633129  0.68690508  0.94001091    -0.19600
F656        F  0.27239708  0.66483872  0.85874556    -0.22300
C657        C  0.45545982  0.01796966  0.92272208    -0.05100
C658        C  0.46335354  0.98184923  0.94851204     0.00800
C659        C  0.48231580  0.98314258  0.99723926    -0.07800
C660        C  0.49361388  0.02045538  0.01746196    -0.05100
C661        C  0.48658711  0.05636993  0.99112951     0.00800
C662        C  0.46622272  0.05533960  0.94343795    -0.07700
C663        C  0.45440101  0.09341170  0.91529603     0.62700
H664        H  0.44018235  0.01677765  0.88628915     0.13400
H665        H  0.50904582  0.02177543  0.05377776     0.13400
C666        C  0.49190813  0.94549944  0.02750375     0.62900
F667        F  0.42818888  0.08591609  0.87532355    -0.22200
F668        F  0.48827559  0.11126562  0.89513509    -0.19600
F669        F  0.43524713  0.11965955  0.94869907    -0.19200
F670        F  0.51336759  0.91875103  0.99715868    -0.19300
F671        F  0.45655687  0.92813990  0.04397331    -0.19600
F672        F  0.51495687  0.95345692  0.07038872    -0.22300
C673        C  0.45396834  0.77203061  0.74340141    -0.05100
C674        C  0.43481747  0.80954304  0.73727158     0.00800
C675        C  0.41956010  0.82016004  0.68859517    -0.07800
C676        C  0.41981925  0.79137313  0.64954888    -0.05100
C677        C  0.43630806  0.75296438  0.65650760     0.00800
C678        C  0.45536134  0.74342128  0.70347652    -0.07700
C679        C  0.47628130  0.70333240  0.71176463     0.62700
H680        H  0.46681869  0.76478277  0.78037003     0.13400
H681        H  0.40629259  0.79873354  0.61293246     0.13400
C682        C  0.40263853  0.86146792  0.67719469     0.62900
F683        F  0.48849122  0.69846542  0.76202541    -0.22200
F684        F  0.51010238  0.70077628  0.68078135    -0.19600
F685        F  0.45054076  0.67241364  0.69991917    -0.19200
F686        F  0.42510306  0.89045643  0.70147989    -0.19300
F687        F  0.36304031  0.86395943  0.69364067    -0.19600
F688        F  0.40373197  0.86938540  0.62519187    -0.22300
C689        C  0.28451287  0.96465527  0.90708942    -0.05100
C690        C  0.28829268  0.92394389  0.89437230     0.00800
C691        C  0.25480557  0.89872661  0.90050702    -0.07800
C692        C  0.22095036  0.91346352  0.92653801    -0.05100
C693        C  0.21889571  0.95267927  0.94585234     0.00800
C694        C  0.25008264  0.97977658  0.93300023    -0.07700
C695        C  0.24863230  0.02342668  0.94902427     0.62700
H696        H  0.31032701  0.98373517  0.90090712     0.13400
H697        H  0.19644068  0.89300121  0.93432121     0.13400
C698        C  0.25520940  0.85509037  0.88457094     0.62900
F699        F  0.28130974  0.04432159  0.93031583    -0.22200
F700        F  0.24906372  0.02633251  0.00177296    -0.19600
F701        F  0.21397458  0.04147031  0.93027069    -0.19200
F702        F  0.26587597  0.83174239  0.92609898    -0.19300
F703        F  0.28192420  0.84786356  0.84476889    -0.19600
F704        F  0.21730368  0.84398890  0.86803559    -0.22300
C705        C  0.38493792  0.76591847  0.01383755    -0.05100
C706        C  0.41343965  0.76851086  0.97427153     0.00800
C707        C  0.43710403  0.73444408  0.96111772    -0.07800
C708        C  0.42775066  0.69765674  0.98398150    -0.05100
C709        C  0.39716547  0.69455382  0.02102792     0.00800
C710        C  0.37718667  0.72961336  0.03871609    -0.07700
C711        C  0.34670101  0.72866018  0.08207948     0.62700
H712        H  0.36789922  0.79253405  0.02410692     0.13400
H713        H  0.44345477  0.67064020  0.97192063     0.13400
C714        C  0.47065464  0.73639959  0.92161972     0.62900
F715        F  0.33169233  0.76641070  0.09365746    -0.22200
F716        F  0.36499179  0.71376613  0.12567587    -0.19600
F717        F  0.31462195  0.70472544  0.06877219    -0.19200
F718        F  0.49939468  0.76332707  0.93754547    -0.19300
F719        F  0.45506301  0.74843261  0.87507814    -0.19600
F720        F  0.48972139  0.69972078  0.91467450    -0.22300
loop_ 
_geom_bond_atom_site_label_1 
_geom_bond_atom_site_label_2 
_geom_bond_distance 
_geom_bond_site_symmetry_2 
_ccdc_geom_bond_type 
O1            C4   1.265       .  A
O1           Cd6   2.477       .  S
C2           O11   1.264       .  A
C2            O7   1.267       .  A
C2          C690   1.475       .  S
O3            C9   1.267       .  A
O3           Cd6   2.481       .  S
C4           O12   1.265       .  A
C4          C674   1.486       .  S
C5           O10   1.261       .  A
C5            O8   1.268       .  A
C5          C658   1.493       .  S
Cd6          O13   2.430       .  S
Cd6          O12   2.500       .  S
Cd6          O11   2.416       .  S
Cd6           O7   2.494       .  S
Cd6          O10   2.457       .  S
Cd6           O8   2.504       .  S
C9           O13   1.265       .  A
C9          C706   1.479       .  S
O14          C17   1.269       .  A
O14         Cd19   2.469       .  S
C15          O24   1.265       .  A
C15          O20   1.266       .  A
C15         C626   1.486       .  S
O16          C22   1.268       .  A
O16         Cd19   2.488   1_556  S
C17          O25   1.265       .  A
C17         C709   1.479       .  S
C18          O23   1.267       .  A
C18          O21   1.264       .  A
C18         C610   1.486       .  S
Cd19         O26   2.412       .  S
Cd19         O25   2.425       .  S
Cd19         O24   2.466       .  S
Cd19         O20   2.487       .  S
Cd19         O23   2.446       .  S
Cd19         O21   2.459       .  S
C22          O26   1.263   1_556  A
C22         C642   1.471       .  S
O27          C30   1.260       .  A
O27         Cd32   2.431       .  S
C28          O37   1.264       .  A
C28          O33   1.264       .  A
C28         C645   1.476       .  S
O29          C35   1.268       .  A
O29         Cd32   2.498       .  S
C30          O38   1.269       .  A
C30         C578   1.494       .  S
C31          O36   1.265       .  A
C31          O34   1.265       .  A
C31         C565   1.498   1_455  S
Cd32         O39   2.426       .  S
Cd32         O38   2.537       .  S
Cd32         O37   2.472       .  S
Cd32         O33   2.433       .  S
Cd32         O36   2.471       .  S
Cd32         O34   2.477       .  S
C35          O39   1.263       .  A
C35         C594   1.491   1_556  S
O40          C43   1.263   1_545  A
O40         Cd45   2.473   1_545  S
C41          O50   1.263       .  A
C41          O46   1.266       .  A
C41         C597   1.482       .  S
O42          C48   1.263   1_566  A
O42         Cd45   2.443   1_556  S
C43          O51   1.266       .  A
C43         C546   1.488       .  S
C44          O49   1.267       .  A
C44          O47   1.263   1_556  A
C44         C693   1.488       .  S
Cd45         O52   2.505   1_565  S
Cd45         O51   2.493       .  S
Cd45         O50   2.454       .  S
Cd45         O46   2.480       .  S
Cd45         O49   2.519   1_554  S
Cd45         O47   2.386       .  S
C48          O52   1.268       .  A
C48         C530   1.493       .  S
O53          C56   1.268       .  A
O53         Cd58   2.491       .  S
C54          O63   1.264       .  A
C54          O59   1.266       .  A
C54         C629   1.488       .  S
O55          C61   1.268       .  A
O55         Cd58   2.459       .  S
C56          O64   1.263       .  A
C56         C514   1.473       .  S
C57          O62   1.264       .  A
C57          O60   1.265       .  A
C57         C482   1.487       .  S
Cd58         O65   2.416       .  S
Cd58         O64   2.406       .  S
Cd58         O63   2.472       .  S
Cd58         O59   2.493       .  S
Cd58         O62   2.448       .  S
Cd58         O60   2.467       .  S
C61          O65   1.262       .  A
C61         C498   1.478       .  S
O66          C69   1.264       .  A
O66         Cd71   2.462       .  S
C67          O76   1.268       .  A
C67          O72   1.263       .  A
C67         C581   1.506       .  S
O68          C74   1.263       .  A
O68         Cd71   2.477       .  S
C69          O77   1.266       .  A
C69         C466   1.482       .  S
C70          O75   1.269       .  A
C70          O73   1.264       .  A
C70         C517   1.477       .  S
Cd71         O78   2.483       .  S
Cd71         O77   2.457       .  S
Cd71         O76   2.554       .  S
Cd71         O72   2.457       .  S
Cd71         O75   2.478       .  S
Cd71         O73   2.426       .  S
C74          O78   1.267       .  A
C74         C450   1.500       .  S
O79          C82   1.266       .  A
O79         Cd84   2.466       .  S
C80          O89   1.264       .  A
C80          O85   1.267       .  A
C80         C434   1.470       .  S
O81          C87   1.263       .  A
O81         Cd84   2.454   1_545  S
C82          O90   1.263       .  A
C82         C549   1.486       .  S
C83          O88   1.268       .  A
C83          O86   1.263       .  A
C83         C469   1.478       .  S
Cd84         O91   2.462   1_565  S
Cd84         O90   2.460       .  S
Cd84         O89   2.402       .  S
Cd84         O85   2.483       .  S
Cd84         O88   2.471       .  S
Cd84         O86   2.428       .  S
C87          O91   1.266       .  A
C87         C418   1.482       .  S
O92          C95   1.263       .  A
O92         Cd97   2.405       .  S
C93         O102   1.265       .  A
C93          O98   1.264       .  A
C93         C501   1.474       .  S
O94         C100   1.268       .  A
O94         Cd97   2.455       .  S
C95         O103   1.268       .  A
C95         C677   1.482       .  S
C96         O101   1.261       .  A
C96          O99   1.267       .  A
C96         C405   1.473       .  S
Cd97        O104   2.446       .  S
Cd97        O103   2.510       .  S
Cd97        O102   2.437       .  S
Cd97         O98   2.469       .  S
Cd97        O101   2.424       .  S
Cd97         O99   2.463       .  S
C100        O104   1.267       .  A
C100        C437   1.481       .  S
O105        C108   1.264       .  A
O105       Cd110   2.494       .  S
C106        O115   1.265       .  A
C106        O111   1.264       .  A
C106        C389   1.469       .  S
O107        C113   1.264       .  A
O107       Cd110   2.441       .  S
C108        O116   1.263       .  A
C108        C357   1.484       .  S
C109        O114   1.267       .  A
C109        O112   1.266       .  A
C109        C370   1.479   1_554  S
Cd110       O117   2.477       .  S
Cd110       O116   2.478       .  S
Cd110       O115   2.424       .  S
Cd110       O111   2.452       .  S
Cd110       O114   2.460       .  S
Cd110       O112   2.419       .  S
C113        O117   1.267       .  A
C113        C562   1.491       .  S
O118        C121   1.262       .  A
O118       Cd123   2.421       .  S
C119        O128   1.263       .  A
C119        O124   1.263       .  A
C119        C338   1.487       .  S
O120        C126   1.268       .  A
O120       Cd123   2.496       .  S
C121        O129   1.266       .  A
C121        C322   1.484       .  S
C122        O127   1.264       .  A
C122        O125   1.266       .  A
C122        C613   1.489       .  S
Cd123       O130   2.415       .  S
Cd123       O129   2.520       .  S
Cd123       O128   2.453       .  S
Cd123       O124   2.487       .  S
Cd123       O127   2.446       .  S
Cd123       O125   2.465       .  S
C126        O130   1.264       .  A
C126        C386   1.478   1_556  S
O131        C134   1.266       .  A
O131       Cd136   2.465       .  S
C132        O141   1.261       .  A
C132        O137   1.265       .  A
C132        C293   1.485       .  S
O133        C139   1.269       .  A
O133       Cd136   2.452   1_556  S
C134        O142   1.263       .  A
C134        C306   1.472       .  S
C135        O140   1.261   1_554  A
C135        O138   1.268       .  A
C135        C661   1.488   1_554  S
Cd136       O143   2.435   1_554  S
Cd136       O142   2.427       .  S
Cd136       O141   2.462       .  S
Cd136       O137   2.490       .  S
Cd136       O140   2.450   1_554  S
Cd136       O138   2.492       .  S
C139        O143   1.262       .  A
C139        C341   1.488       .  S
O144        C147   1.267       .  A
O144       Cd149   2.492       .  S
C145        O154   1.266       .  A
C145        O150   1.263       .  A
C145        C274   1.491       .  S
O146        C152   1.269       .  A
O146       Cd149   2.501       .  S
C147        O155   1.264       .  A
C147        C373   1.476       .  S
C148        O153   1.264       .  A
C148        O151   1.265       .  A
C148        C309   1.483   1_556  S
Cd149       O156   2.422       .  S
Cd149       O155   2.425       .  S
Cd149       O154   2.512       .  S
Cd149       O150   2.448       .  S
Cd149       O153   2.461       .  S
Cd149       O151   2.440       .  S
C152        O156   1.265       .  A
C152        C533   1.494       .  S
O157        C160   1.260       .  A
O157       Cd162   2.430       .  S
C158        O167   1.265       .  A
C158        O163   1.266       .  A
C158        C245   1.474       .  S
O159        C165   1.268       .  A
O159       Cd162   2.462       .  S
C160        O168   1.265       .  A
C160        C277   1.486       .  S
C161        O166   1.261       .  A
C161        O164   1.266       .  A
C161        C421   1.487       .  S
Cd162       O169   2.437       .  S
Cd162       O168   2.508       .  S
Cd162       O167   2.438       .  S
Cd162       O163   2.459       .  S
Cd162       O166   2.455       .  S
Cd162       O164   2.496       .  S
C165        O169   1.264       .  A
C165        C258   1.485       .  S
O170        C173   1.267       .  A
O170       Cd175   2.488       .  S
C171        O180   1.266       .  A
C171        O176   1.265       .  A
C171        C354   1.490       .  S
O172        C178   1.267       .  A
O172       Cd175   2.473       .  S
C173        O181   1.263       .  A
C173        C261   1.475       .  S
C174        O179   1.262       .  A
C174        O177   1.267       .  A
C174        C453   1.491       .  S
Cd175       O182   2.403       .  S
Cd175       O181   2.429       .  S
Cd175       O180   2.474       .  S
Cd175       O176   2.481       .  S
Cd175       O179   2.449       .  S
Cd175       O177   2.473       .  S
C178        O182   1.265       .  A
C178        C229   1.480       .  S
O183        C186   1.266       .  A
O183       Cd188   2.436       .  S
C184        O193   1.261       .  A
C184        O189   1.265       .  A
C184        C290   1.482       .  S
O185        C191   1.263       .  A
O185       Cd188   2.402       .  S
C186        O194   1.264       .  A
C186        C213   1.478       .  S
C187        O192   1.262       .  A
C187        O190   1.267       .  A
C187        C402   1.474       .  S
Cd188       O195   2.479       .  S
Cd188       O194   2.448       .  S
Cd188       O193   2.459       .  S
Cd188       O189   2.469       .  S
Cd188       O192   2.413       .  S
Cd188       O190   2.466       .  S
C191        O195   1.265       .  A
C191        C242   1.483       .  S
O196        C199   1.261       .  A
O196       Cd201   2.436       .  S
C197        O206   1.265       .  A
C197        O202   1.263       .  A
C197        C226   1.481       .  S
O198        C204   1.269       .  A
O198       Cd201   2.471       .  S
C199        O207   1.264       .  A
C199        C325   1.486       .  S
C200        O205   1.261       .  A
C200        O203   1.265       .  A
C200        C485   1.491       .  S
Cd201       O208   2.405       .  S
Cd201       O207   2.501       .  S
Cd201       O206   2.475       .  S
Cd201       O202   2.436       .  S
Cd201       O205   2.427       .  S
Cd201       O203   2.484       .  S
C204        O208   1.264       .  A
C204        C210   1.474       .  S
C209        C210   1.401       .  A
C209        C214   1.406       .  A
C209        H216   1.082       .  S
C210        C211   1.416       .  A
C211        C212   1.403       .  A
C211        C218   1.519       .  S
C212        C213   1.403       .  A
C212        H217   1.084       .  S
C213        C214   1.423       .  A
C214        C215   1.522       .  S
C215        F219   1.385       .  S
C215        F220   1.384       .  S
C215        F221   1.383       .  S
C218        F222   1.383       .  S
C218        F223   1.384       .  S
C218        F224   1.384       .  S
C225        C226   1.407       .  A
C225        C230   1.408       .  A
C225        H232   1.083       .  S
C226        C227   1.417       .  A
C227        C228   1.401       .  A
C227        C234   1.519       .  S
C228        C229   1.403       .  A
C228        H233   1.086       .  S
C229        C230   1.418       .  A
C230        C231   1.519       .  S
C231        F235   1.385   1_655  S
C231        F236   1.383       .  S
C231        F237   1.383       .  S
C234        F238   1.382       .  S
C234        F239   1.383       .  S
C234        F240   1.385       .  S
C241        C242   1.406       .  A
C241        C246   1.398       .  A
C241        H248   1.087       .  S
C242        C243   1.422       .  A
C243        C244   1.407       .  A
C243        C250   1.518       .  S
C244        C245   1.402       .  A
C244        H249   1.086       .  S
C245        C246   1.413       .  A
C246        C247   1.516       .  S
C247        F251   1.386       .  S
C247        F252   1.382       .  S
C247        F253   1.384       .  S
C250        F254   1.382       .  S
C250        F255   1.383       .  S
C250        F256   1.385       .  S
C257        C258   1.406       .  A
C257        C262   1.402       .  A
C257        H264   1.081       .  S
C258        C259   1.423       .  A
C259        C260   1.407       .  A
C259        C266   1.518       .  S
C260        C261   1.401       .  A
C260        H265   1.081       .  S
C261        C262   1.414       .  A
C262        C263   1.516       .  S
C263        F267   1.385   1_545  S
C263        F268   1.383       .  S
C263        F269   1.384       .  S
C266        F270   1.383       .  S
C266        F271   1.383       .  S
C266        F272   1.385       .  S
C273        C274   1.407       .  A
C273        C278   1.404       .  A
C273        H280   1.083       .  S
C274        C275   1.420       .  A
C275        C276   1.412       .  A
C275        C282   1.517       .  S
C276        C277   1.406       .  A
C276        H281   1.084       .  S
C277        C278   1.417       .  A
C278        C279   1.520       .  S
C279        F283   1.384       .  S
C279        F284   1.384       .  S
C279        F285   1.383       .  S
C282        F286   1.383       .  S
C282        F287   1.383       .  S
C282        F288   1.385       .  S
C289        C290   1.400       .  A
C289        C294   1.407       .  A
C289        H296   1.081       .  S
C290        C291   1.421       .  A
C291        C292   1.409       .  A
C291        C298   1.520       .  S
C292        C293   1.403       .  A
C292        H297   1.079       .  S
C293        C294   1.423       .  A
C294        C295   1.522       .  S
C295        F299   1.385       .  S
C295        F300   1.382       .  S
C295        F301   1.384       .  S
C298        F302   1.383       .  S
C298        F303   1.384       .  S
C298        F304   1.384       .  S
C305        C306   1.401       .  A
C305        C310   1.406       .  A
C305        H312   1.084       .  S
C306        C307   1.411       .  A
C307        C308   1.400       .  A
C307        C314   1.515       .  S
C308        C309   1.406       .  A
C308        H313   1.089       .  S
C309        C310   1.423       .  A
C310        C311   1.519   1_554  S
C311        F315   1.385       .  S
C311        F316   1.383       .  S
C311        F317   1.384       .  S
C314        F318   1.384       .  S
C314        F319   1.383       .  S
C314        F320   1.384       .  S
C321        C322   1.403       .  A
C321        C326   1.402       .  A
C321        H328   1.086       .  S
C322        C323   1.419       .  A
C323        C324   1.411       .  A
C323        C330   1.519       .  S
C324        C325   1.408       .  A
C324        H329   1.086       .  S
C325        C326   1.419       .  A
C326        C327   1.520       .  S
C327        F331   1.385       .  S
C327        F332   1.384       .  S
C327        F333   1.382       .  S
C330        F334   1.383       .  S
C330        F335   1.383       .  S
C330        F336   1.385       .  S
C337        C338   1.406       .  A
C337        C342   1.407       .  A
C337        H344   1.079       .  S
C338        C339   1.420       .  A
C339        C340   1.406       .  A
C339        C346   1.520       .  S
C340        C341   1.406       .  A
C340        H345   1.078       .  S
C341        C342   1.422       .  A
C342        C343   1.522       .  S
C343        F347   1.385       .  S
C343        F348   1.383       .  S
C343        F349   1.383       .  S
C346        F350   1.383       .  S
C346        F351   1.383       .  S
C346        F352   1.385       .  S
C353        C354   1.408       .  A
C353        C358   1.410       .  A
C353        H360   1.088       .  S
C354        C355   1.419       .  A
C355        C356   1.409       .  A
C355        C362   1.518       .  S
C356        C357   1.404       .  A
C356        H361   1.088       .  S
C357        C358   1.415       .  A
C358        C359   1.518       .  S
C359        F363   1.384       .  S
C359        F364   1.382       .  S
C359        F365   1.384       .  S
C362        F366   1.384       .  S
C362        F367   1.383       .  S
C362        F368   1.384       .  S
C369        C370   1.404       .  A
C369        C374   1.399       .  A
C369        H376   1.084       .  S
C370        C371   1.420       .  A
C371        C372   1.410       .  A
C371        C378   1.519       .  S
C372        C373   1.405       .  A
C372        H377   1.082       .  S
C373        C374   1.413       .  A
C374        C375   1.515       .  S
C375        F379   1.384       .  S
C375        F380   1.383       .  S
C375        F381   1.383       .  S
C378        F382   1.384   1_556  S
C378        F383   1.384   1_655  S
C378        F384   1.384   1_655  S
C385        C386   1.404       .  A
C385        C390   1.408       .  A
C385        H392   1.084   1_554  S
C386        C387   1.416       .  A
C387        C388   1.400       .  A
C387        C394   1.514       .  S
C388        C389   1.398       .  A
C388        H393   1.086       .  S
C389        C390   1.420       .  A
C390        C391   1.521       .  S
C391        F395   1.384   1_554  S
C391        F396   1.383       .  S
C391        F397   1.383       .  S
C394        F398   1.383       .  S
C394        F399   1.384       .  S
C394        F400   1.384       .  S
C401        C402   1.404       .  A
C401        C406   1.405       .  A
C401        H408   1.085       .  S
C402        C403   1.416       .  A
C403        C404   1.403       .  A
C403        C410   1.520       .  S
C404        C405   1.403       .  A
C404        H409   1.084       .  S
C405        C406   1.417       .  A
C406        C407   1.520       .  S
C407        F411   1.384       .  S
C407        F412   1.384       .  S
C407        F413   1.383       .  S
C410        F414   1.382       .  S
C410        F415   1.384       .  S
C410        F416   1.384       .  S
C417        C418   1.403       .  A
C417        C422   1.405       .  A
C417        H424   1.083   1_545  S
C418        C419   1.417       .  A
C419        C420   1.410       .  A
C419        C426   1.519       .  S
C420        C421   1.407       .  A
C420        H425   1.083       .  S
C421        C422   1.419       .  A
C422        C423   1.520       .  S
C423        F427   1.385   1_545  S
C423        F428   1.384   1_545  S
C423        F429   1.382       .  S
C426        F430   1.382       .  S
C426        F431   1.384       .  S
C426        F432   1.384       .  S
C433        C434   1.400       .  A
C433        C438   1.403       .  A
C433        H440   1.084       .  S
C434        C435   1.413       .  A
C435        C436   1.401       .  A
C435        C442   1.516       .  S
C436        C437   1.405       .  A
C436        H441   1.085       .  S
C437        C438   1.418       .  A
C438        C439   1.513       .  S
C439        F443   1.385       .  S
C439        F444   1.382       .  S
C439        F445   1.384       .  S
C442        F446   1.382       .  S
C442        F447   1.384       .  S
C442        F448   1.384       .  S
C449        C450   1.409       .  A
C449        C454   1.409   1_565  A
C449        H456   1.084       .  S
C450        C451   1.425   1_455  A
C451        C452   1.408   1_565  A
C451        C458   1.520       .  S
C452        C453   1.404       .  A
C452        H457   1.085       .  S
C453        C454   1.420   1_655  A
C454        C455   1.521       .  S
C455        F459   1.385       .  S
C455        F460   1.383   1_455  S
C455        F461   1.384       .  S
C458        F462   1.383       .  S
C458        F463   1.383   1_655  S
C458        F464   1.385       .  S
C465        C466   1.405       .  A
C465        C470   1.405       .  A
C465        H472   1.080       .  S
C466        C467   1.421       .  A
C467        C468   1.407       .  A
C467        C474   1.521       .  S
C468        C469   1.403       .  A
C468        H473   1.078       .  S
C469        C470   1.416       .  A
C470        C471   1.519       .  S
C471        F475   1.385       .  S
C471        F476   1.384       .  S
C471        F477   1.383       .  S
C474        F478   1.382       .  S
C474        F479   1.384       .  S
C474        F480   1.385       .  S
C481        C482   1.408       .  A
C481        C486   1.408   1_455  A
C481        H488   1.085       .  S
C482        C483   1.416   1_455  A
C483        C484   1.405       .  A
C483        C490   1.518   1_655  S
C484        C485   1.409       .  A
C484        H489   1.084       .  S
C485        C486   1.422       .  A
C486        C487   1.522       .  S
C487        F491   1.385   1_655  S
C487        F492   1.384       .  S
C487        F493   1.383       .  S
C490        F494   1.384       .  S
C490        F495   1.382   1_455  S
C490        F496   1.385   1_455  S
C497        C498   1.404       .  A
C497        C502   1.404       .  A
C497        H504   1.080       .  S
C498        C499   1.420       .  A
C499        C500   1.404       .  A
C499        C506   1.521       .  S
C500        C501   1.402       .  A
C500        H505   1.082       .  S
C501        C502   1.417       .  A
C502        C503   1.520       .  S
C503        F507   1.385       .  S
C503        F508   1.383       .  S
C503        F509   1.383       .  S
C506        F510   1.384       .  S
C506        F511   1.382       .  S
C506        F512   1.385       .  S
C513        C514   1.401       .  A
C513        C518   1.404       .  A
C513        H520   1.086       .  S
C514        C515   1.418       .  A
C515        C516   1.402       .  A
C515        C522   1.517       .  S
C516        C517   1.401       .  A
C516        H521   1.088   1_455  S
C517        C518   1.418       .  A
C518        C519   1.514       .  S
C519        F523   1.385       .  S
C519        F524   1.383       .  S
C519        F525   1.384       .  S
C522        F526   1.383       .  S
C522        F527   1.384       .  S
C522        F528   1.384   1_455  S
C529        C530   1.410   1_556  A
C529        C534   1.411   1_455  A
C529        H536   1.079   1_545  S
C530        C531   1.417   1_455  A
C531        C532   1.407       .  A
C531        C538   1.519   1_655  S
C532        C533   1.409   1_554  A
C532        H537   1.078       .  S
C533        C534   1.419       .  A
C534        C535   1.520       .  S
C535        F539   1.385   1_545  S
C535        F540   1.383       .  S
C535        F541   1.383   1_545  S
C538        F542   1.383       .  S
C538        F543   1.382       .  S
C538        F544   1.385   1_455  S
C545        C546   1.403       .  A
C545        C550   1.411       .  A
C545        H552   1.080       .  S
C546        C547   1.422       .  A
C547        C548   1.408       .  A
C547        C554   1.520   1_565  S
C548        C549   1.402       .  A
C548        H553   1.081       .  S
C549        C550   1.422       .  A
C550        C551   1.521       .  S
C551        F555   1.384       .  S
C551        F556   1.383   1_565  S
C551        F557   1.384       .  S
C554        F558   1.382       .  S
C554        F559   1.384   1_545  S
C554        F560   1.385       .  S
C561        C562   1.407   1_556  A
C561        C566   1.408       .  A
C561        H568   1.081       .  S
C562        C563   1.417   1_655  A
C563        C564   1.410       .  A
C563        C570   1.520       .  S
C564        C565   1.411   1_454  A
C564        H569   1.081       .  S
C565        C566   1.422       .  A
C566        C567   1.521       .  S
C567        F571   1.385       .  S
C567        F572   1.383       .  S
C567        F573   1.384       .  S
C570        F574   1.384       .  S
C570        F575   1.383   1_455  S
C570        F576   1.384       .  S
C577        C578   1.406       .  A
C577        C582   1.417       .  A
C577        H584   1.080   1_455  S
C578        C579   1.419       .  A
C579        C580   1.407       .  A
C579        C586   1.523       .  S
C580        C581   1.409       .  A
C580        H585   1.079       .  S
C581        C582   1.425       .  A
C582        C583   1.517   1_455  S
C583        F587   1.385       .  S
C583        F588   1.383       .  S
C583        F589   1.383       .  S
C586        F590   1.384       .  S
C586        F591   1.383       .  S
C586        F592   1.385       .  S
C593        C594   1.409       .  A
C593        C598   1.406       .  A
C593        H600   1.081       .  S
C594        C595   1.421       .  A
C595        C596   1.409       .  A
C595        C602   1.520   1_454  S
C596        C597   1.404       .  A
C596        H601   1.083       .  S
C597        C598   1.415       .  A
C598        C599   1.519       .  S
C599        F603   1.385       .  S
C599        F604   1.383       .  S
C599        F605   1.382       .  S
C602        F606   1.383       .  S
C602        F607   1.384   1_655  S
C602        F608   1.385       .  S
C609        C610   1.405   1_556  A
C609        C614   1.405       .  A
C609        H616   1.084       .  S
C610        C611   1.419       .  A
C611        C612   1.408       .  A
C611        C618   1.520       .  S
C612        C613   1.408   1_554  A
C612        H617   1.084       .  S
C613        C614   1.421       .  A
C614        C615   1.521       .  S
C615        F619   1.385       .  S
C615        F620   1.383       .  S
C615        F621   1.383       .  S
C618        F622   1.383       .  S
C618        F623   1.382       .  S
C618        F624   1.385       .  S
C625        C626   1.406       .  A
C625        C630   1.408       .  A
C625        H632   1.087       .  S
C626        C627   1.417       .  A
C627        C628   1.410       .  A
C627        C634   1.519       .  S
C628        C629   1.408       .  A
C628        H633   1.086       .  S
C629        C630   1.417       .  A
C630        C631   1.518       .  S
C631        F635   1.385       .  S
C631        F636   1.383       .  S
C631        F637   1.383       .  S
C634        F638   1.382       .  S
C634        F639   1.383       .  S
C634        F640   1.385       .  S
C641        C642   1.402       .  A
C641        C646   1.409       .  A
C641        H648   1.083       .  S
C642        C643   1.414       .  A
C643        C644   1.400       .  A
C643        C650   1.517       .  S
C644        C645   1.402       .  A
C644        H649   1.084       .  S
C645        C646   1.420       .  A
C646        C647   1.519       .  S
C647        F651   1.385       .  S
C647        F652   1.383       .  S
C647        F653   1.384       .  S
C650        F654   1.383       .  S
C650        F655   1.383       .  S
C650        F656   1.384       .  S
C657        C658   1.408   1_545  A
C657        C662   1.411       .  A
C657        H664   1.080       .  S
C658        C659   1.422       .  A
C659        C660   1.409   1_566  A
C659        C666   1.520   1_556  S
C660        C661   1.404   1_554  A
C660        H665   1.080       .  S
C661        C662   1.419       .  A
C662        C663   1.520       .  S
C663        F667   1.384       .  S
C663        F668   1.382       .  S
C663        F669   1.384       .  S
C666        F670   1.383   1_554  S
C666        F671   1.383       .  S
C666        F672   1.385       .  S
C673        C674   1.409       .  A
C673        C678   1.414       .  A
C673        H680   1.084       .  S
C674        C675   1.415       .  A
C675        C676   1.401       .  A
C675        C682   1.516       .  S
C676        C677   1.403       .  A
C676        H681   1.085       .  S
C677        C678   1.417       .  A
C678        C679   1.519       .  S
C679        F683   1.385       .  S
C679        F684   1.383       .  S
C679        F685   1.384       .  S
C682        F686   1.383       .  S
C682        F687   1.382       .  S
C682        F688   1.386       .  S
C689        C690   1.405       .  A
C689        C694   1.414       .  A
C689        H696   1.086       .  S
C690        C691   1.411       .  A
C691        C692   1.395       .  A
C691        C698   1.517       .  S
C692        C693   1.405       .  A
C692        H697   1.088       .  S
C693        C694   1.423       .  A
C694        C695   1.518   1_565  S
C695        F699   1.385       .  S
C695        F700   1.382   1_556  S
C695        F701   1.383       .  S
C698        F702   1.383       .  S
C698        F703   1.383       .  S
C698        F704   1.384       .  S
C705        C706   1.403   1_554  A
C705        C710   1.405       .  A
C705        H712   1.082       .  S
C706        C707   1.417       .  A
C707        C708   1.407       .  A
C707        C714   1.518       .  S
C708        C709   1.405   1_556  A
C708        H713   1.083       .  S
C709        C710   1.416       .  A
C710        C711   1.517       .  S
C711        F715   1.384       .  S
C711        F716   1.383       .  S
C711        F717   1.383       .  S
C714        F718   1.383       .  S
C714        F719   1.382       .  S
C714        F720   1.385       .  S
