geometry optimzed in LAMMPS
_audit_creation_date              2020-12-01 
_audit_creation_method            'lammps2cif' 
_symmetry_space_group_name_H-M    'P1' 
_symmetry_Int_Tables_number       1 
_symmetry_cell_setting            triclinic 
loop_ 
_symmetry_equiv_pos_as_xyz 
  x,y,z 
_cell_length_a                    19.68755499 
_cell_length_b                    20.35416032822878 
_cell_length_c                    20.23806571444422 
_cell_angle_alpha                 88.83632131548995 
_cell_angle_beta                  89.43877100490212 
_cell_angle_gamma                 91.25493617356669 
loop_ 
_atom_site_label 
_atom_site_type_symbol 
_atom_site_fract_x 
_atom_site_fract_y 
_atom_site_fract_z 
_atom_site_charge 
C1          C  0.15879554  0.95909336  0.18375427     0.42300
N2          N  0.07774227  0.96099617  0.11481308     0.01100
C3          C  0.06677329  0.07967745  0.80129562    -0.06700
H4          H  0.01463920  0.24036181  0.02199599     0.06600
C5          C  0.81395644  0.11066474  0.04242047    -0.07100
Co6        Co  0.12251652  0.02081848  0.98788475     0.74200
N7          N  0.05577314  0.14894383  0.98746550    -0.26300
Co8        Co  0.98574451  0.10105342  0.92627063     0.74100
C9          C  0.83632199  0.17855018  0.04606711     0.42400
N10         N  0.88025521  0.96905653  0.09249519     0.00800
N11         N  0.90603909  0.12820787  0.98587496     0.00900
N12         N  0.16035471  0.03222030  0.84106130    -0.47100
H13         H  0.22796361  0.02194591  0.11468840     0.06600
N14         N  0.11017490  0.11682246  0.00525609     0.01200
N15         N  0.92015552  0.04660203  0.86905945     0.00900
C16         C  0.84445036  0.03931649  0.79520959     0.42500
N17         N  0.93285882  0.93894285  0.11690831    -0.25700
C18         C  0.18242200  0.89696390  0.94032451    -0.06600
N19         N  0.09402977  0.94019255  0.17404480    -0.46800
N20         N  0.90764555  0.06172384  0.80734203    -0.47000
C21         C  0.16231364  0.82836379  0.94109379     0.42300
N22         N  0.11467632  0.04025385  0.88811430     0.01100
N23         N  0.94228372  0.85882721  0.99735498    -0.25700
N24         N  0.12544330  0.99886860  0.08718329    -0.26200
N25         N  0.88777252  0.89000436  0.97852575     0.00800
H26         H  0.98456376  0.76668606  0.96624096     0.06700
H27         H  0.77607152  0.97310816  0.86203156     0.06700
N28         N  0.06121988  0.07054428  0.86619557    -0.26300
N29         N  0.86225165  0.08321937  0.00775939    -0.25900
N30         N  0.09107860  0.87997821  0.99836610     0.01100
C31         C  0.11513397  0.20180010  0.06365865     0.42500
C32         C  0.92118188  0.92594454  0.18057729    -0.07100
N33         N  0.87349546  0.00697229  0.89537016    -0.25900
H34         H  0.77295835  0.08456611  0.06841971     0.06700
N35         N  0.14670036  0.14652116  0.04970702    -0.47100
H36         H  0.95349130  0.89664359  0.21190566     0.06700
C37         C  0.88382852  0.80254122  0.92298612     0.42400
C38         C  0.17798315  0.00279950  0.12831403    -0.06600
Co39       Co  0.01104841  0.90778165  0.05801455     0.73800
N40         N  0.82983444  0.97314982  0.13518381    -0.46800
C41         C  0.13456343  0.05864264  0.78494700     0.42600
N42         N  0.10578831  0.82041889  0.97876553    -0.46800
Co43       Co  0.87454929  0.98683027  0.99389970     0.73900
C44         C  0.82484009  0.99666648  0.85119101    -0.07100
C45         C  0.05489457  0.20512354  0.02172939    -0.06700
N46         N  0.13362617  0.92484095  0.97381718    -0.26200
N47         N  0.89292099  0.18697124  0.00860087    -0.47000
H48         H  0.03226576  0.10774770  0.77116905     0.06700
C49         C  0.94400094  0.80158481  0.96495161    -0.07100
Cl50       Cl  0.99852752  0.00417685  0.99169054    -0.50100
C51         C  0.85010605  0.94295726  0.19095611     0.42400
H52         H  0.22352977  0.92258243  0.91407148     0.06600
N53         N  0.85144535  0.85800676  0.93558254    -0.46800
C54         C  0.78577345  0.77129248  0.76843984    -0.02700
C55         C  0.76882082  0.77391496  0.23733128    -0.02700
C56         C  0.56353228  0.72246868  0.96448332     0.02100
C57         C  0.56155504  0.71963416  0.03498982     0.02000
C58         C  0.49730800  0.71656018  0.06652186    -0.18500
C59         C  0.43523113  0.71872734  0.03224178     0.02100
C60         C  0.43774737  0.71869386  0.96147179     0.02000
C61         C  0.50177959  0.71821402  0.92999434    -0.18500
H62         H  0.50356035  0.71990482  0.87632458     0.04100
H63         H  0.49570568  0.71911794  0.11995023     0.04100
C64         C  0.77234420  0.21077908  0.75614202    -0.02700
C65         C  0.69119248  0.95788933  0.56249296     0.02100
C66         C  0.68933424  0.02789669  0.55702535     0.02000
C67         C  0.68648799  0.05735645  0.49369546    -0.18500
C68         C  0.70139087  0.02258867  0.43618548     0.02100
C69         C  0.69548859  0.95260555  0.44102341     0.02000
C70         C  0.68626311  0.92244563  0.50375279    -0.18500
H71         H  0.68587465  0.86914684  0.50670725     0.04100
H72         H  0.68375866  0.11049262  0.49031296     0.04100
C73         C  0.77994216  0.21501654  0.22190520    -0.02700
C74         C  0.56711434  0.26637434  0.03453408     0.02100
C75         C  0.56955200  0.26635567  0.96367874     0.02000
C76         C  0.50693103  0.26678164  0.93018535    -0.18500
C77         C  0.44327327  0.26580798  0.96259713     0.02100
C78         C  0.44181343  0.26597449  0.03294197     0.02000
C79         C  0.50341019  0.26966113  0.06640708    -0.18500
H80         H  0.50151807  0.27059402  0.12004838     0.04100
H81         H  0.50737547  0.26343403  0.87679888     0.04100
C82         C  0.22317480  0.78010829  0.77103515    -0.02700
C83         C  0.96242029  0.55350107  0.69888519     0.02100
C84         C  0.03520087  0.55787181  0.70656783     0.02000
C85         C  0.07093921  0.49860146  0.71305524    -0.18500
C86         C  0.03894139  0.43580931  0.71605727     0.02100
C87         C  0.96781768  0.43153573  0.70473238     0.02000
C88         C  0.93296950  0.48993986  0.69162691    -0.18500
H89         H  0.87958515  0.48525933  0.68010603     0.04100
H90         H  0.12544806  0.50151005  0.71964432     0.04100
C91         C  0.23505287  0.22131183  0.76063717    -0.02700
C92         C  0.28758469  0.97780850  0.55935943     0.02100
C93         C  0.29662975  0.04773321  0.55049841     0.02000
C94         C  0.30431139  0.07323515  0.48526230    -0.18500
C95         C  0.29329110  0.03548216  0.42904589     0.02100
C96         C  0.28815507  0.96616604  0.43809027     0.02000
C97         C  0.28763003  0.93912353  0.50262355    -0.18500
H98         H  0.28215109  0.88611286  0.50879800     0.04100
H99         H  0.31346613  0.12552070  0.47774013     0.04100
C100        C  0.21286479  0.22683445  0.22114452    -0.02700
C101        C  0.22542507  0.78663439  0.22936385    -0.02700
C102        C  0.96043367  0.56044477  0.27329971     0.02100
C103        C  0.03212402  0.56472956  0.27855081     0.02000
C104        C  0.06742258  0.50654012  0.28892671    -0.18500
C105        C  0.03589656  0.44377715  0.28653282     0.02100
C106        C  0.96346148  0.43922061  0.28133054     0.02000
C107        C  0.92779753  0.49843388  0.27604726    -0.18500
H108        H  0.87316882  0.49671709  0.26971647     0.04100
H109        H  0.12232723  0.50993733  0.29307025     0.04100
C110        C  0.08158515  0.65566996  0.20536159    -0.13500
C111        C  0.07476667  0.62587985  0.26838037     0.08600
C112        C  0.12204568  0.64369454  0.31678216    -0.13500
C113        C  0.17303319  0.69139841  0.30347186    -0.13500
C114        C  0.17681391  0.72574939  0.24201832     0.08600
C115        C  0.13188485  0.70445932  0.19226693    -0.13500
H116        H  0.04996194  0.63929428  0.16527223     0.12600
H117        H  0.12104688  0.61861395  0.36452544     0.12600
H118        H  0.20908908  0.70151159  0.34211910     0.12600
H119        H  0.13507584  0.72657187  0.14318387     0.12600
C120        C  0.13041956  0.28086241  0.30296032    -0.13500
C121        C  0.18007610  0.28838279  0.25174277     0.08600
C122        C  0.18006513  0.34852969  0.21544353    -0.13500
C123        C  0.13340586  0.39675998  0.22782831    -0.13500
C124        C  0.08375680  0.38861763  0.27736889     0.08600
C125        C  0.08331506  0.33054450  0.31610271    -0.13500
H126        H  0.12517471  0.23496512  0.33059708     0.12600
H127        H  0.20925633  0.35640084  0.17072125     0.12600
H128        H  0.13417064  0.44009062  0.19567827     0.12600
H129        H  0.04552140  0.32280844  0.35479836     0.12600
C130        C  0.32936962  0.89746814  0.34330528    -0.13500
C131        C  0.27660205  0.91859311  0.38471098     0.08600
C132        C  0.21469976  0.88395372  0.38522650    -0.13500
C133        C  0.20342221  0.83268300  0.34234300    -0.13500
C134        C  0.25304748  0.81484379  0.29492377     0.08600
C135        C  0.31783997  0.84594385  0.29870063    -0.13500
H136        H  0.37898292  0.92138500  0.34486946     0.12600
H137        H  0.17417426  0.89751138  0.41859630     0.12600
H138        H  0.15205726  0.81277589  0.34050999     0.12600
H139        H  0.35739026  0.83494801  0.26338178     0.12600
C140        C  0.29872993  0.17608804  0.30272055    -0.13500
C141        C  0.23310921  0.17406945  0.27494407     0.08600
C142        C  0.18997672  0.12031710  0.29520621    -0.13500
C143        C  0.21184283  0.07122668  0.34003855    -0.13500
C144        C  0.27753991  0.07373756  0.36672246     0.08600
C145        C  0.32073228  0.12656810  0.34640492    -0.13500
H146        H  0.33370996  0.21633327  0.29057354     0.12600
H147        H  0.13806819  0.11687306  0.27835022     0.12600
H148        H  0.17587798  0.03339502  0.35692748     0.12600
H149        H  0.37091160  0.13156290  0.36751863     0.12600
C150        C  0.25619943  0.20785980  0.63628152    -0.13500
C151        C  0.27705728  0.19594092  0.70124026     0.08600
C152        C  0.31963514  0.14094855  0.71206985    -0.13500
C153        C  0.32667361  0.09236081  0.66392002    -0.13500
C154        C  0.29329430  0.09857423  0.60333549     0.08600
C155        C  0.26046921  0.15859047  0.58957296    -0.13500
H156        H  0.22993314  0.25208882  0.62268314     0.12600
H157        H  0.33912176  0.13042546  0.76080621     0.12600
H158        H  0.35542779  0.04883110  0.67528504     0.12600
H159        H  0.23519640  0.16698648  0.54307015     0.12600
C160        C  0.08197808  0.32127999  0.69228157    -0.13500
C161        C  0.08356082  0.37813972  0.73032654     0.08600
C162        C  0.13412159  0.38343299  0.77868989    -0.13500
C163        C  0.18353839  0.33554122  0.78676736    -0.13500
C164        C  0.18521295  0.27933407  0.74671147     0.08600
C165        C  0.13085844  0.27233963  0.70127179    -0.13500
H166        H  0.04366950  0.31502003  0.65477309     0.12600
H167        H  0.13578416  0.42552191  0.81058723     0.12600
H168        H  0.21856467  0.34275170  0.82669174     0.12600
H169        H  0.12543858  0.22810050  0.67288831     0.12600
C170        C  0.18986424  0.87255048  0.68731610    -0.13500
C171        C  0.24050826  0.83109996  0.71331206     0.08600
C172        C  0.30758767  0.84336002  0.68945182    -0.13500
C173        C  0.32380272  0.89671995  0.64620373    -0.13500
C174        C  0.27366406  0.93922720  0.62254330     0.08600
C175        C  0.20614741  0.92545672  0.64308985    -0.13500
H176        H  0.13733385  0.86449930  0.70219544     0.12600
H177        H  0.34848643  0.81174270  0.70405948     0.12600
H178        H  0.37548976  0.90259386  0.62793456     0.12600
H179        H  0.16532379  0.95391702  0.62240611     0.12600
C180        C  0.18901123  0.67854868  0.70102572    -0.13500
C181        C  0.17127200  0.72511758  0.74826584     0.08600
C182        C  0.10316343  0.72003939  0.77351752    -0.13500
C183        C  0.05970056  0.66687611  0.76015883    -0.13500
C184        C  0.07788036  0.61992753  0.71437896     0.08600
C185        C  0.14285343  0.62756735  0.68367740    -0.13500
H186        H  0.23905425  0.68093075  0.67835427     0.12600
H187        H  0.08201622  0.75608165  0.80572888     0.12600
H188        H  0.01187594  0.66224916  0.78685240     0.12600
H189        H  0.15914118  0.59225894  0.64782165     0.12600
C190        C  0.35057830  0.19614040  0.08826242    -0.13500
C191        C  0.38017185  0.25858740  0.07622803     0.08600
C192        C  0.36470868  0.30833296  0.12092270    -0.13500
C193        C  0.31634598  0.29733088  0.17169188    -0.13500
C194        C  0.27637427  0.23885392  0.17486296     0.08600
C195        C  0.29821542  0.18689721  0.13493570    -0.13500
H196        H  0.36967183  0.15359758  0.06363545     0.12600
H197        H  0.39293256  0.35458230  0.11871359     0.12600
H198        H  0.31078413  0.33492915  0.20822598     0.12600
H199        H  0.27490495  0.13843552  0.14043264     0.12600
C200        C  0.33661023  0.20851313  0.92446287    -0.13500
C201        C  0.38238432  0.26188580  0.91893100     0.08600
C202        C  0.37908264  0.30277169  0.86193222    -0.13500
C203        C  0.33294196  0.28905987  0.81126582    -0.13500
C204        C  0.28534232  0.23651128  0.81764956     0.08600
C205        C  0.28831573  0.19677301  0.87588707    -0.13500
H206        H  0.34097945  0.17234947  0.96284982     0.12600
H207        H  0.41505030  0.34337345  0.85489206     0.12600
H208        H  0.33386734  0.31988715  0.76704077     0.12600
H209        H  0.25653133  0.15328993  0.88341571     0.12600
C210        C  0.90049199  0.27144427  0.22380674    -0.13500
C211        C  0.83127985  0.26950194  0.24485655     0.08600
C212        C  0.81046644  0.31980751  0.28655638    -0.13500
C213        C  0.85546077  0.37143826  0.30284886    -0.13500
C214        C  0.92188428  0.37660119  0.27535494     0.08600
C215        C  0.94333676  0.32539014  0.23562440    -0.13500
H216        H  0.92197305  0.23254123  0.19525152     0.12600
H217        H  0.75896251  0.31953354  0.30581576     0.12600
H218        H  0.83705374  0.40902681  0.33515672     0.12600
H219        H  0.99227617  0.32749204  0.21103690     0.12600
C220        C  0.71567936  0.30016873  0.14986268    -0.13500
C221        C  0.71291081  0.24366438  0.19260483     0.08600
C222        C  0.65609884  0.20132403  0.18448773    -0.13500
C223        C  0.61628254  0.20462213  0.12810212    -0.13500
C224        C  0.62436648  0.25617991  0.08129823     0.08600
C225        C  0.67252296  0.30593496  0.09461640    -0.13500
H226        H  0.75560279  0.33701589  0.15521526     0.12600
H227        H  0.64214077  0.16386057  0.22040134     0.12600
H228        H  0.57542278  0.16850821  0.12308262     0.12600
H229        H  0.67657534  0.34916356  0.06268600     0.12600
C230        C  0.77153171  0.11956091  0.39167793    -0.13500
C231        C  0.73045798  0.06340990  0.37866693     0.08600
C232        C  0.71446445  0.05217884  0.31250537    -0.13500
C233        C  0.73435267  0.09822982  0.26262049    -0.13500
C234        C  0.76635288  0.15993013  0.27700117     0.08600
C235        C  0.78791223  0.16716761  0.34270768    -0.13500
H236        H  0.78934948  0.12845413  0.44128665     0.12600
H237        H  0.68454379  0.00954571  0.29924336     0.12600
H238        H  0.72102691  0.08644653  0.21232208     0.12600
H239        H  0.81687498  0.20975805  0.35764753     0.12600
C240        C  0.82464154  0.30560002  0.68046560    -0.13500
C241        C  0.82090448  0.27166013  0.74206034     0.08600
C242        C  0.86756878  0.29201155  0.79094568    -0.13500
C243        C  0.91876293  0.33980614  0.77723394    -0.13500
C244        C  0.92418548  0.37064168  0.71468778     0.08600
C245        C  0.87603040  0.35309918  0.66675637    -0.13500
H246        H  0.78818715  0.29553421  0.64218475     0.12600
H247        H  0.86543889  0.26929933  0.83982213     0.12600
H248        H  0.95263038  0.35447506  0.81638047     0.12600
H249        H  0.87684511  0.37803843  0.61894148     0.12600
C250        C  0.67904095  0.28014890  0.80754990    -0.13500
C251        C  0.72327412  0.22730646  0.81442356     0.08600
C252        C  0.72373439  0.19436773  0.87731952    -0.13500
C253        C  0.67817149  0.21032944  0.92852032    -0.13500
C254        C  0.63163446  0.26086653  0.91972387     0.08600
C255        C  0.63515461  0.29725485  0.85932314    -0.13500
H256        H  0.67799029  0.30804146  0.76143998     0.12600
H257        H  0.75820953  0.15497508  0.88756237     0.12600
H258        H  0.67707918  0.18074325  0.97360539     0.12600
H259        H  0.60063037  0.33714800  0.85060805     0.12600
C260        C  0.67304764  0.15104222  0.69651153    -0.13500
C261        C  0.73776133  0.18321676  0.69317159     0.08600
C262        C  0.78209295  0.16447818  0.64152403    -0.13500
C263        C  0.76739754  0.11061232  0.60271000    -0.13500
C264        C  0.70597908  0.07514426  0.60994622     0.08600
C265        C  0.65736851  0.09768401  0.65507161    -0.13500
H266        H  0.63712224  0.16254575  0.73513070     0.12600
H267        H  0.83319038  0.18491878  0.63754089     0.12600
H268        H  0.80466904  0.09627617  0.56626340     0.12600
H269        H  0.60788354  0.07357489  0.65886106     0.12600
C270        C  0.33209439  0.78329778  0.06463698    -0.13500
C271        C  0.37316535  0.72877535  0.07482395     0.08600
C272        C  0.36472868  0.69299618  0.13516095    -0.13500
C273        C  0.31967082  0.71317826  0.18486629    -0.13500
C274        C  0.27919898  0.76869008  0.17562350     0.08600
C275        C  0.28543221  0.80228194  0.11330996    -0.13500
H276        H  0.33813247  0.81352131  0.02033704     0.12600
H277        H  0.39576353  0.65073348  0.14522294     0.12600
H278        H  0.31601948  0.68491766  0.23072727     0.12600
H279        H  0.25513459  0.84429181  0.10112685     0.12600
C280        C  0.34167696  0.67939228  0.88679356    -0.13500
C281        C  0.37954530  0.73074182  0.91586157     0.08600
C282        C  0.37478558  0.79383475  0.88785247    -0.13500
C283        C  0.33128562  0.80642470  0.83532173    -0.13500
C284        C  0.28862124  0.75676498  0.80816167     0.08600
C285        C  0.29616194  0.69216044  0.83422887    -0.13500
H286        H  0.34721826  0.62931731  0.90485067     0.12600
H287        H  0.40552603  0.83387761  0.90670605     0.12600
H288        H  0.32634989  0.85734752  0.81973160     0.12600
H289        H  0.26439760  0.65227408  0.81695062     0.12600
C290        C  0.78464470  0.81959840  0.35178266    -0.13500
C291        C  0.73805698  0.80039991  0.30232442     0.08600
C292        C  0.67355077  0.82985966  0.30319055    -0.13500
C293        C  0.66023330  0.88194632  0.34594188    -0.13500
C294        C  0.71103221  0.90607688  0.38797980     0.08600
C295        C  0.77196659  0.87236105  0.39233249    -0.13500
H296        H  0.83543862  0.80035883  0.35272758     0.12600
H297        H  0.63566555  0.81736774  0.26692873     0.12600
H298        H  0.61082841  0.90430039  0.34530524     0.12600
H299        H  0.81026322  0.88728129  0.42745650     0.12600
C300        C  0.85289031  0.69067366  0.19360917    -0.13500
C301        C  0.81307733  0.71228326  0.24723019     0.08600
C302        C  0.82060994  0.67940087  0.30876098    -0.13500
C303        C  0.87209560  0.63372348  0.31802869    -0.13500
C304        C  0.91561081  0.61754588  0.26568755     0.08600
C305        C  0.90353339  0.64435359  0.20279153    -0.13500
H306        H  0.84647933  0.71191239  0.14458437     0.12600
H307        H  0.78795849  0.68952269  0.35036709     0.12600
H308        H  0.87700857  0.60958297  0.36592879     0.12600
H309        H  0.93207771  0.62829407  0.16038597     0.12600
C310        C  0.67010638  0.70600184  0.18962455    -0.13500
C311        C  0.71639243  0.75930633  0.18192354     0.08600
C312        C  0.71587770  0.79452925  0.12049651    -0.13500
C313        C  0.66901557  0.77921780  0.07089491    -0.13500
C314        C  0.62178045  0.72717977  0.07977448     0.08600
C315        C  0.62441063  0.68978228  0.13929591    -0.13500
H316        H  0.66936105  0.67681921  0.23493300     0.12600
H317        H  0.75091198  0.83508348  0.10996551     0.12600
H318        H  0.66788575  0.81022816  0.02692882     0.12600
H319        H  0.58882780  0.64908258  0.14808122     0.12600
C320        C  0.62572320  0.79188295  0.87993447    -0.13500
C321        C  0.62535389  0.73658319  0.92243548     0.08600
C322        C  0.67792797  0.69182442  0.91580884    -0.13500
C323        C  0.72811525  0.70130390  0.86599644    -0.13500
C324        C  0.72562780  0.75390786  0.81848188     0.08600
C325        C  0.67497585  0.80093520  0.83015579    -0.13500
H326        H  0.58651360  0.82813762  0.88464806     0.12600
H327        H  0.67961833  0.64907229  0.94837110     0.12600
H328        H  0.76951020  0.66735792  0.86597292     0.12600
H329        H  0.67355030  0.84641867  0.80184936     0.12600
C330        C  0.77146052  0.92908387  0.65457782    -0.13500
C331        C  0.70934264  0.91790220  0.62288649     0.08600
C332        C  0.67463016  0.85761513  0.63668355    -0.13500
C333        C  0.70153279  0.80989350  0.67963268    -0.13500
C334        C  0.76245638  0.82172919  0.71388296     0.08600
C335        C  0.79777095  0.88199300  0.69875615    -0.13500
H336        H  0.80189318  0.97265830  0.64230124     0.12600
H337        H  0.62767162  0.84606952  0.61154946     0.12600
H338        H  0.67332750  0.76415010  0.68798620     0.12600
H339        H  0.84715855  0.89278321  0.71921684     0.12600
C340        C  0.88423371  0.72609190  0.69940363    -0.13500
C341        C  0.82210037  0.71388084  0.73405647     0.08600
C342        C  0.80126812  0.64796456  0.74259950    -0.13500
C343        C  0.84705937  0.59748227  0.73216347    -0.13500
C344        C  0.91273217  0.60964963  0.70434099     0.08600
C345        C  0.92782408  0.67464086  0.68297580    -0.13500
H346        H  0.90107089  0.77619792  0.68835033     0.12600
H347        H  0.75131931  0.63484056  0.76155234     0.07500
H348        H  0.83072854  0.54881915  0.74896757     0.12600
H349        H  0.97466055  0.68642738  0.65669416     0.12600
C350        C  0.83730383  0.80291376  0.81356402    -0.16600
C351        C  0.87125341  0.76918512  0.86076872    -0.31800
H352        H  0.83167008  0.85529164  0.81998687     0.12400
H353        H  0.87913387  0.71672527  0.85799481     0.13000
C354        C  0.81742159  0.15425840  0.77580738    -0.16600
C355        C  0.79646391  0.09008415  0.77775843    -0.31800
H356        H  0.87099383  0.16615835  0.78157498     0.12400
H357        H  0.74334640  0.07594444  0.77334658     0.13000
C358        C  0.18910571  0.81719556  0.82564717    -0.16600
C359        C  0.17584953  0.78801571  0.88525607    -0.31800
H360        H  0.18184345  0.86964189  0.81869134     0.12400
H361        H  0.17916956  0.73528491  0.89309435     0.13000
C362        C  0.80281730  0.89371803  0.21804785    -0.16600
C363        C  0.81772472  0.82922305  0.21519842    -0.31800
H364        H  0.75219664  0.90948086  0.23061663     0.12400
H365        H  0.86820994  0.81582148  0.19931543     0.13000
C366        C  0.18257130  0.84324495  0.20452192    -0.16600
C367        C  0.20503154  0.90706307  0.20249615    -0.31800
H368        H  0.12953321  0.83217264  0.19472726     0.12400
H369        H  0.25796864  0.92012202  0.21020032     0.13000
C370        C  0.81106003  0.18205363  0.16280686    -0.16600
C371        C  0.82590394  0.21491988  0.10549725    -0.31800
H372        H  0.81875580  0.12947019  0.16562613     0.12400
H373        H  0.82914342  0.26798288  0.10189453     0.13000
C374        C  0.18706520  0.16552006  0.78252403    -0.16600
C375        C  0.17541279  0.10835592  0.75092488    -0.31800
H376        H  0.15946293  0.17360716  0.82855085     0.12400
H377        H  0.19441957  0.09751527  0.70228344     0.13000
C378        C  0.15844214  0.19961321  0.17497054    -0.16600
C379        C  0.13046224  0.23510055  0.12485990    -0.31800
H380        H  0.15394895  0.14642243  0.17251921     0.12400
H381        H  0.13019058  0.28798577  0.12248037     0.13000
loop_ 
_geom_bond_atom_site_label_1 
_geom_bond_atom_site_label_2 
_geom_bond_distance 
_geom_bond_site_symmetry_2 
_ccdc_geom_bond_type 
C1           N19   1.341       .  A
C1           C38   1.459   1_565  S
C1          C367   1.458       .  S
N2           N19   1.308       .  A
N2           N24   1.315       .  A
N2          Co39   2.058       .  S
C3           N28   1.326       .  A
C3           C41   1.448       .  S
C3           H48   1.082       .  S
H4           C45   1.081       .  S
C5           N29   1.317       .  A
C5            C9   1.445       .  S
C5           H34   1.083       .  S
Co6          N24   2.051   1_546  S
Co6          N14   2.012   1_556  S
Co6          N46   1.996   1_545  S
Co6          N22   2.058       .  S
Co6         Cl50   2.457   1_455  S
N7           C45   1.350   1_556  A
N7           N14   1.316   1_556  A
N7           Co8   2.100   1_455  S
Co8          N11   2.062       .  S
Co8          N28   2.027   1_655  S
Co8          N15   2.063       .  S
Co8         Cl50   2.372       .  S
C9           N47   1.348       .  A
C9          C371   1.440       .  S
N10          N17   1.311       .  A
N10          N40   1.315       .  A
N10         Co43   2.025   1_554  S
N11          N29   1.311   1_556  A
N11          N47   1.320   1_556  A
N12          C41   1.355       .  A
N12          N22   1.318       .  A
H13          C38   1.082       .  S
N14          N35   1.307       .  A
N15          N33   1.311       .  A
N15          N20   1.307       .  A
C16          N20   1.342       .  A
C16          C44   1.457   1_545  S
C16         C355   1.456       .  S
N17          C32   1.327       .  A
N17         Co39   2.057   1_655  S
C18          N46   1.316       .  A
C18          C21   1.443       .  S
C18          H52   1.082       .  S
C21          N42   1.348       .  A
C21         C359   1.437       .  S
N22          N28   1.308       .  A
N23          C49   1.349       .  A
N23          N25   1.314       .  A
N23         Co39   2.087   1_656  S
N24          C38   1.336   1_565  A
N25          N53   1.306       .  A
N25         Co43   2.023       .  S
H26          C49   1.081       .  S
H27          C44   1.082       .  S
N29         Co43   2.007   1_544  S
N30          N42   1.320       .  A
N30          N46   1.312       .  A
N30         Co39   2.071   1_556  S
C31          N35   1.331       .  A
C31          C45   1.467       .  S
C31         C379   1.455       .  S
C32          C51   1.463       .  S
C32          H36   1.082       .  S
N33          C44   1.333   1_545  A
N33         Co43   2.028   1_545  S
C37          N53   1.336       .  A
C37          C49   1.465       .  S
C37         C351   1.463       .  S
Co39        Cl50   2.373   1_464  S
N40          C51   1.343       .  A
C41         C375   1.439       .  S
Co43        Cl50   2.458   1_565  S
C51         C362   1.449       .  S
C54         C324   1.580       .  S
C54         C334   1.571       .  S
C54         C341   1.556       .  S
C54         C350   1.514       .  S
C55         C291   1.554       .  S
C55         C301   1.554       .  S
C55         C311   1.560       .  S
C55         C363   1.523       .  S
C56         C321   1.498       .  S
C56          C57   1.427   1_556  A
C56          C61   1.410       .  A
C57         C314   1.507       .  S
C57          C58   1.411       .  A
C58          H63   1.084       .  S
C58          C59   1.412       .  A
C59         C271   1.508       .  S
C59          C60   1.433   1_554  A
C60         C281   1.500       .  S
C60          C61   1.407       .  A
C61          H62   1.086       .  S
C64         C241   1.568       .  S
C64         C251   1.564       .  S
C64         C261   1.559       .  S
C64         C354   1.517       .  S
C65         C331   1.505       .  S
C65          C66   1.428   1_565  A
C65          C70   1.406       .  A
C66         C264   1.488       .  S
C66          C67   1.406       .  A
C67          H72   1.085       .  S
C67          C68   1.406       .  A
C68         C231   1.516       .  S
C68          C69   1.428   1_545  A
C69         C294   1.480       .  S
C69          C70   1.407       .  A
C70          H71   1.085       .  S
C73         C211   1.565       .  S
C73         C221   1.571       .  S
C73         C234   1.582       .  S
C73         C370   1.514       .  S
C74         C224   1.494       .  S
C74          C75   1.434   1_554  A
C74          C79   1.408       .  A
C75         C254   1.512       .  S
C75          C76   1.413       .  A
C76          H81   1.084       .  S
C76          C77   1.408       .  A
C77         C201   1.498       .  S
C77          C78   1.424   1_556  A
C78         C191   1.493       .  S
C78          C79   1.396       .  A
C79          H80   1.086       .  S
C82         C171   1.577       .  S
C82         C181   1.578       .  S
C82         C284   1.575       .  S
C82         C358   1.511       .  S
C83         C344   1.526       .  S
C83          C84   1.444   1_655  A
C83          C88   1.417       .  A
C84         C184   1.513       .  S
C84          C85   1.414       .  A
C85          H90   1.083       .  S
C85          C86   1.412       .  A
C86         C161   1.506       .  S
C86          C87   1.422   1_455  A
C87         C244   1.502       .  S
C87          C88   1.407       .  A
C88          H89   1.081       .  S
C91         C151   1.556       .  S
C91         C164   1.575       .  S
C91         C204   1.559       .  S
C91         C374   1.517       .  S
C92         C174   1.507       .  S
C92          C93   1.438   1_565  A
C92          C97   1.405       .  A
C93         C154   1.505       .  S
C93          C94   1.414       .  A
C94          H99   1.083       .  S
C94          C95   1.402       .  A
C95         C144   1.507       .  S
C95          C96   1.420   1_545  A
C96         C131   1.481       .  S
C96          C97   1.407       .  A
C97          H98   1.087       .  S
C100        C121   1.558       .  S
C100        C141   1.574       .  S
C100        C194   1.567       .  S
C100        C378   1.531       .  S
C101        C114   1.564       .  S
C101        C134   1.555       .  S
C101        C274   1.564       .  S
C101        C366   1.523       .  S
C102        C304   1.481       .  S
C102        C103   1.417   1_655  A
C102        C107   1.404       .  A
C103        C111   1.496       .  S
C103        C104   1.400       .  A
C104        H109   1.086       .  S
C104        C105   1.410       .  A
C105        C124   1.495       .  S
C105        C106   1.432   1_455  A
C106        C214   1.507       .  S
C106        C107   1.411       .  A
C107        H108   1.084       .  S
C110        H116   1.081       .  S
C110        C111   1.405       .  A
C110        C115   1.406       .  A
C111        C112   1.405       .  A
C112        H117   1.083       .  S
C112        C113   1.402       .  A
C113        H118   1.081       .  S
C113        C114   1.415       .  A
C114        C115   1.415       .  A
C115        H119   1.083       .  S
C120        H126   1.082       .  S
C120        C121   1.422       .  A
C120        C125   1.414       .  A
C121        C122   1.415       .  A
C122        H127   1.075       .  S
C122        C123   1.384       .  A
C123        H128   1.085       .  S
C123        C124   1.398       .  A
C124        C125   1.405       .  A
C125        H129   1.082       .  S
C130        H136   1.083       .  S
C130        C131   1.408       .  A
C130        C135   1.414       .  A
C131        C132   1.394       .  A
C132        H137   1.084       .  S
C132        C133   1.386       .  A
C133        H138   1.082       .  S
C133        C134   1.421       .  A
C134        C135   1.415       .  A
C135        H139   1.082       .  S
C140        H146   1.081       .  S
C140        C141   1.414       .  A
C140        C145   1.406       .  A
C141        C142   1.421       .  A
C142        H147   1.082       .  S
C142        C143   1.413       .  A
C143        H148   1.083       .  S
C143        C144   1.407       .  A
C144        C145   1.408       .  A
C145        H149   1.084       .  S
C150        H156   1.080       .  S
C150        C151   1.399       .  A
C150        C155   1.395       .  A
C151        C152   1.428       .  A
C152        H157   1.081       .  S
C152        C153   1.410       .  A
C153        H158   1.084       .  S
C153        C154   1.402       .  A
C154        C155   1.418       .  A
C155        H159   1.081       .  S
C160        H166   1.083       .  S
C160        C161   1.403       .  A
C160        C165   1.411       .  A
C161        C162   1.407       .  A
C162        H167   1.083       .  S
C162        C163   1.401       .  A
C163        H168   1.078       .  S
C163        C164   1.416       .  A
C164        C165   1.424       .  A
C165        H169   1.082       .  S
C170        H176   1.082       .  S
C170        C171   1.418       .  A
C170        C175   1.415       .  A
C171        C172   1.417       .  A
C172        H177   1.081       .  S
C172        C173   1.410       .  A
C173        H178   1.083       .  S
C173        C174   1.408       .  A
C174        C175   1.409       .  A
C175        H179   1.083       .  S
C180        H186   1.082       .  S
C180        C181   1.407       .  A
C180        C185   1.416       .  A
C181        C182   1.431       .  A
C182        H187   1.079       .  S
C182        C183   1.397       .  A
C183        H188   1.082       .  S
C183        C184   1.394       .  A
C184        C185   1.421       .  A
C185        H189   1.083       .  S
C190        H196   1.081       .  S
C190        C191   1.402       .  A
C190        C195   1.398       .  A
C191        C192   1.408       .  A
C192        H197   1.083       .  S
C192        C193   1.405       .  A
C193        H198   1.081       .  S
C193        C194   1.412       .  A
C194        C195   1.416       .  A
C195        H199   1.082       .  S
C200        H206   1.065       .  S
C200        C201   1.398       .  A
C200        C205   1.395       .  A
C201        C202   1.411       .  A
C202        H207   1.083       .  S
C202        C203   1.405       .  A
C203        H208   1.082       .  S
C203        C204   1.410       .  A
C204        C205   1.418       .  A
C205        H209   1.080       .  S
C210        H216   1.081       .  S
C210        C211   1.423       .  A
C210        C215   1.396       .  A
C211        C212   1.405       .  A
C212        H217   1.083       .  S
C212        C213   1.406       .  A
C213        H218   1.083       .  S
C213        C214   1.417       .  A
C214        C215   1.399       .  A
C215        H219   1.080       .  S
C220        H226   1.082       .  S
C220        C221   1.425       .  A
C220        C225   1.415       .  A
C221        C222   1.410       .  A
C222        H227   1.072       .  S
C222        C223   1.392       .  A
C223        H228   1.085       .  S
C223        C224   1.405       .  A
C224        C225   1.404       .  A
C225        H229   1.082       .  S
C230        H236   1.084       .  S
C230        C231   1.416       .  A
C230        C235   1.402       .  A
C231        C232   1.401       .  A
C232        H237   1.078       .  S
C232        C233   1.410       .  A
C233        H238   1.084       .  S
C233        C234   1.429       .  A
C234        C235   1.409       .  A
C235        H239   1.077       .  S
C240        H246   1.081       .  S
C240        C241   1.413       .  A
C240        C245   1.406       .  A
C241        C242   1.419       .  A
C242        H247   1.083       .  S
C242        C243   1.407       .  A
C243        H248   1.083       .  S
C243        C244   1.403       .  A
C244        C245   1.409       .  A
C245        H249   1.083       .  S
C250        H256   1.083       .  S
C250        C251   1.404       .  A
C250        C255   1.406       .  A
C251        C252   1.427       .  A
C252        H257   1.080       .  S
C252        C253   1.411       .  A
C253        H258   1.083       .  S
C253        C254   1.402       .  A
C254        C255   1.417       .  A
C255        H259   1.083       .  S
C260        H266   1.082       .  S
C260        C261   1.420       .  A
C260        C265   1.416       .  A
C261        C262   1.419       .  A
C262        H267   1.082       .  S
C262        C263   1.389       .  A
C263        H268   1.084       .  S
C263        C264   1.400       .  A
C264        C265   1.407       .  A
C265        H269   1.083       .  S
C270        H276   1.081       .  S
C270        C271   1.400       .  A
C270        C275   1.406       .  A
C271        C272   1.416       .  A
C272        H277   1.083       .  S
C272        C273   1.408       .  A
C273        H278   1.083       .  S
C273        C274   1.407       .  A
C274        C275   1.425       .  A
C275        H279   1.079       .  S
C280        H286   1.084       .  S
C280        C281   1.412       .  A
C280        C285   1.421       .  A
C281        C282   1.399       .  A
C282        H287   1.082       .  S
C282        C283   1.395       .  A
C283        H288   1.084       .  S
C283        C284   1.423       .  A
C284        C285   1.418       .  A
C285        H289   1.080       .  S
C290        H296   1.082       .  S
C290        C291   1.419       .  A
C290        C295   1.390       .  A
C291        C292   1.416       .  A
C292        H297   1.081       .  S
C292        C293   1.409       .  A
C293        H298   1.083       .  S
C293        C294   1.406       .  A
C294        C295   1.398       .  A
C295        H299   1.084       .  S
C300        H306   1.084       .  S
C300        C301   1.415       .  A
C300        C305   1.398       .  A
C301        C302   1.412       .  A
C302        H307   1.080       .  S
C302        C303   1.402       .  A
C303        H308   1.084       .  S
C303        C304   1.405       .  A
C304        C305   1.399       .  A
C305        H309   1.081       .  S
C310        H316   1.082       .  S
C310        C311   1.407       .  A
C310        C315   1.405       .  A
C311        C312   1.423       .  A
C312        H317   1.081       .  S
C312        C313   1.405       .  A
C313        H318   1.081       .  S
C313        C314   1.402       .  A
C314        C315   1.414       .  A
C315        H319   1.084       .  S
C320        H326   1.084       .  S
C320        C321   1.403       .  A
C320        C325   1.398       .  A
C321        C322   1.401       .  A
C322        H327   1.082       .  S
C322        C323   1.412       .  A
C323        H328   1.080       .  S
C323        C324   1.426       .  A
C324        C325   1.419       .  A
C325        H329   1.080       .  S
C330        H336   1.083       .  S
C330        C331   1.403       .  A
C330        C335   1.408       .  A
C331        C332   1.413       .  A
C332        H337   1.083       .  S
C332        C333   1.406       .  A
C333        H338   1.083       .  S
C333        C334   1.410       .  A
C334        C335   1.423       .  A
C335        H339   1.080       .  S
C340        H346   1.084       .  S
C340        C341   1.419       .  A
C340        C345   1.411       .  A
C341        C342   1.401       .  A
C342        H347   1.078       .  S
C342        C343   1.400       .  A
C343        H348   1.082       .  S
C343        C344   1.420       .  A
C344        C345   1.408       .  A
C345        H349   1.080       .  S
C350        C351   1.355       .  D
C350        H352   1.085       .  S
C351        H353   1.085       .  S
C354        C355   1.361       .  D
C354        H356   1.085       .  S
C355        H357   1.084       .  S
C358        C359   1.354       .  D
C358        H360   1.087       .  S
C359        H361   1.085       .  S
C362        C363   1.354       .  D
C362        H364   1.083       .  S
C363        H365   1.084       .  S
C366        C367   1.363       .  D
C366        H368   1.084       .  S
C367        H369   1.083       .  S
C370        C371   1.353       .  D
C370        H372   1.085       .  S
C371        H373   1.081       .  S
C374        C375   1.355       .  D
C374        H376   1.091       .  S
C375        H377   1.078       .  S
C378        C379   1.361       .  D
C378        H380   1.087       .  S
C379        H381   1.077       .  S
