geometry optimzed in LAMMPS
_audit_creation_date              2020-12-01 
_audit_creation_method            'lammps2cif' 
_symmetry_space_group_name_H-M    'P1' 
_symmetry_Int_Tables_number       1 
_symmetry_cell_setting            triclinic 
loop_ 
_symmetry_equiv_pos_as_xyz 
  x,y,z 
_cell_length_a                    34.06057129 
_cell_length_b                    34.14890434601754 
_cell_length_c                    38.817500577029854 
_cell_angle_alpha                 89.72686297092343 
_cell_angle_beta                  90.10333107214622 
_cell_angle_gamma                 119.97575966178762 
loop_ 
_atom_site_label 
_atom_site_type_symbol 
_atom_site_fract_x 
_atom_site_fract_y 
_atom_site_fract_z 
_atom_site_charge 
O1          O  0.73834216  0.46233837  0.21735226    -0.56700
C2          C  0.71682790  0.49303590  0.31176986     0.75900
O3          O  0.84587307  0.59726734  0.25474773    -0.57900
C4          C  0.76575840  0.47908586  0.19243251     0.75900
C5          C  0.72972668  0.58432684  0.22228346     0.78300
Cd6        Cd  0.76882468  0.53317889  0.25020828     1.37500
O7          O  0.72144915  0.46969029  0.28860534    -0.56700
O8          O  0.71456251  0.54315769  0.21507363    -0.55500
C9          C  0.86216228  0.57714729  0.27180821     0.78200
O10         O  0.76321914  0.60185253  0.24252338    -0.57900
O11         O  0.73610392  0.53507386  0.30624999    -0.56400
O12         O  0.79487536  0.52067482  0.19485671    -0.56400
O13         O  0.83499157  0.53593148  0.27856937    -0.55500
O14         O  0.46192575  0.75515903  0.04697014    -0.56700
C15         C  0.48188928  0.78699776  0.14729895     0.75900
O16         O  0.59565169  0.78207124  0.10417303    -0.57900
C17         C  0.47187349  0.73011179  0.02967060     0.75900
C18         C  0.57922836  0.87134977  0.05533277     0.78300
Cd19       Cd  0.52707868  0.78300963  0.08654816     1.37500
O20         O  0.46087837  0.75953223  0.12328637    -0.56700
O21         O  0.54147737  0.85864463  0.06979756    -0.55500
C22         C  0.57573653  0.74142205  0.11435864     0.78200
O23         O  0.59328471  0.84342182  0.05617889    -0.57900
O24         O  0.52411093  0.81254709  0.14320996    -0.56400
O25         O  0.50725041  0.72971676  0.03904322    -0.56400
O26         O  0.53296755  0.72002245  0.11182599    -0.55500
O27         O  0.73021604  0.30229182  0.87694151    -0.56700
C28         C  0.76082922  0.31360729  0.97578579     0.75900
O29         O  0.76582422  0.20329823  0.93913572    -0.57900
C30         C  0.71442268  0.27104863  0.85485831     0.75900
C31         C  0.85468580  0.30993025  0.88616437     0.78300
Cd32       Cd  0.76401802  0.26841934  0.91417447     1.37500
O33         O  0.73279452  0.30378960  0.95149853    -0.56700
O34         O  0.83788129  0.33328602  0.89696950    -0.55500
C35         C  0.72335806  0.17697134  0.93977619     0.78200
O36         O  0.82956869  0.26761741  0.88886049    -0.57900
O37         O  0.79060848  0.30231386  0.97128433    -0.56400
O38         O  0.72195909  0.23884565  0.86046402    -0.56400
O39         O  0.69950636  0.19290905  0.92816109    -0.55500
O40         O  0.28443373  0.57820568  0.71537084    -0.56700
C41         C  0.31049163  0.56460062  0.81358875     0.75900
O42         O  0.19294439  0.44915495  0.78234580    -0.57900
C43         C  0.25394519  0.55807927  0.69292415     0.75900
C44         C  0.29833639  0.46290410  0.72519660     0.78300
Cd45       Cd  0.25920512  0.51331117  0.75438869     1.37500
O46         O  0.30092656  0.58290515  0.78911852    -0.56700
O47         O  0.32046004  0.50555994  0.72729675    -0.55500
C48         C  0.16864255  0.46759378  0.78249620     0.78200
O49         O  0.25848241  0.44373042  0.73710130    -0.57900
O50         O  0.29725110  0.52302794  0.81013646    -0.56400
O51         O  0.22578599  0.51694203  0.69917056    -0.56400
O52         O  0.18650451  0.50690865  0.76979032    -0.55500
O53         O  0.56062500  0.30879440  0.54267788    -0.56700
C54         C  0.54737592  0.26503257  0.63801613     0.75900
O55         O  0.42547780  0.26803447  0.59280925    -0.57900
C56         C  0.53992251  0.31854833  0.52022088     0.75900
C57         C  0.44887881  0.17381616  0.55367839     0.78300
Cd58       Cd  0.49479076  0.26482901  0.57986608     1.37500
O59         O  0.56432001  0.29406196  0.61418431    -0.56700
O60         O  0.49146031  0.19863987  0.55264327    -0.55500
C61         C  0.44533046  0.30479082  0.60922723     0.78200
O62         O  0.42733421  0.19113409  0.56718462    -0.57900
O63         O  0.50608160  0.23523380  0.63431729    -0.56400
O64         O  0.49813768  0.30289234  0.52550745    -0.58800
O65         O  0.48789967  0.32290495  0.61176617    -0.55500
O66         O  0.30631659  0.75407859  0.38761463    -0.56700
C67         C  0.25030912  0.71772194  0.47496227     0.75900
O68         O  0.25152930  0.83252069  0.45302572    -0.57900
C69         C  0.31455644  0.78033777  0.36219086     0.75900
C70         C  0.17071057  0.73670664  0.38227908     0.78300
Cd71       Cd  0.25634067  0.77503300  0.41781168     1.37500
O72         O  0.28487862  0.73713575  0.45588595    -0.56700
O73         O  0.19196501  0.71543099  0.38609864    -0.55500
C74         C  0.29239459  0.86293738  0.44910696     0.78200
O75         O  0.18941211  0.77618881  0.39454465    -0.57900
O76         O  0.21834296  0.72502851  0.46759069    -0.56400
O77         O  0.29627253  0.80478695  0.36291957    -0.56400
O78         O  0.31637987  0.85283529  0.43044453    -0.55500
C79         C  0.42015874  0.05660637  0.52264054    -0.10800
C80         C  0.37704414  0.04132711  0.50864167     0.11800
C81         C  0.35628504  0.06814860  0.51126356    -0.02600
C82         C  0.38095326  0.11112206  0.52635523    -0.05300
C83         C  0.42511052  0.12751304  0.53914741    -0.16100
C84         C  0.44484479  0.09939610  0.53794192     0.02800
C85         C  0.35412407  0.99625026  0.49230618     0.12800
C86         C  0.30833697  0.05129453  0.49830127     0.63400
H87         H  0.36598803  0.13257029  0.52789484     0.12800
C88         C  0.49122009  0.11368205  0.55312351     0.55500
H89         H  0.43456482  0.03465616  0.52101503     0.08600
C90         C  0.36426498  0.98964055  0.45825134    -0.05200
C91         C  0.34302590  0.94544389  0.44519093    -0.06000
C92         C  0.31152546  0.90826560  0.46477514    -0.15600
C93         C  0.30080124  0.91517531  0.49872597    -0.01100
C94         C  0.32325176  0.95924168  0.51212654    -0.08700
C95         C  0.39748061  0.02904065  0.43593582     0.65600
H96         H  0.35074665  0.93955014  0.41932420     0.11000
C97         C  0.26651238  0.87649661  0.52099618     0.64000
H98         H  0.31673298  0.96539990  0.53828083     0.08400
F99         F  0.52447554  0.14806012  0.53342376    -0.19100
F100        F  0.50017100  0.07834188  0.55388923    -0.15300
F101        F  0.49348080  0.12835786  0.58661788    -0.18800
F102        F  0.27835318  0.01246891  0.51592840    -0.22200
F103        F  0.30566582  0.04177261  0.46353446    -0.23600
F104        F  0.29478540  0.08294529  0.50305499    -0.17600
F105        F  0.26476090  0.89046427  0.55411174    -0.20100
F106        F  0.27787087  0.84293132  0.52331414    -0.21300
F107        F  0.22380193  0.85897200  0.50672231    -0.18500
F108        F  0.40065442  0.01527157  0.40307443    -0.18600
F109        F  0.44014503  0.04932078  0.45057273    -0.22400
F110        F  0.38360974  0.06064632  0.43295053    -0.24000
C111        C  0.32882433  0.37262211  0.70251789    -0.10800
C112        C  0.35869462  0.39363680  0.67496101     0.11800
C113        C  0.36752101  0.43654446  0.66317271    -0.02600
C114        C  0.34750077  0.45809147  0.68069273    -0.05300
C115        C  0.31794874  0.43744075  0.70865929    -0.16100
C116        C  0.30815355  0.39377134  0.71976925     0.02800
C117        C  0.38036326  0.36979157  0.65899055     0.12800
C118        C  0.39747384  0.45912155  0.63198858     0.63400
H119        H  0.35412313  0.49109025  0.67218017     0.12800
C120        C  0.27706160  0.36986788  0.75011696     0.55500
H121        H  0.32200259  0.33935378  0.71045715     0.08600
C122        C  0.41914408  0.37125137  0.67357784    -0.05200
C123        C  0.43905882  0.34950538  0.65630216    -0.06000
C124        C  0.42077694  0.32545608  0.62564407    -0.15600
C125        C  0.38092801  0.32276142  0.61165057    -0.01100
C126        C  0.36134921  0.34507368  0.62881399    -0.08700
C127        C  0.43918550  0.39536707  0.70736524     0.65600
H128        H  0.46901059  0.35064449  0.66696593     0.11000
C129        C  0.35970086  0.29766965  0.57843208     0.64000
H130        H  0.33101680  0.34369353  0.61873257     0.08400
F131        F  0.27704585  0.33055429  0.75903205    -0.19100
F132        F  0.23309574  0.35833751  0.74182061    -0.15300
F133        F  0.29117963  0.39788775  0.77856301    -0.18800
F134        F  0.37840417  0.43269881  0.60314626    -0.22200
F135        F  0.44004992  0.46455245  0.63731632    -0.23600
F136        F  0.40252268  0.50128317  0.62541081    -0.17600
F137        F  0.34273611  0.25184881  0.58328836    -0.20100
F138        F  0.39182683  0.31330300  0.55244991    -0.21300
F139        F  0.32426924  0.30371050  0.56774235    -0.18500
F140        F  0.47777099  0.39385559  0.71634689    -0.18600
F141        F  0.40786750  0.37502295  0.73355049    -0.22400
F142        F  0.45070351  0.44023797  0.70473399    -0.24000
C143        C  0.26947521  0.64248763  0.53797883    -0.10800
C144        C  0.24123775  0.63966005  0.56520846     0.11800
C145        C  0.21496078  0.66105186  0.56238550    -0.02600
C146        C  0.21846206  0.68539607  0.53215451    -0.05300
C147        C  0.24747545  0.68923072  0.50497973    -0.16100
C148        C  0.27267123  0.66635821  0.50748736     0.02800
C149        C  0.24322574  0.61763716  0.59761752     0.12800
C150        C  0.18377384  0.65860407  0.59134789     0.63400
H151        H  0.19925389  0.70272634  0.52994190     0.12800
C152        C  0.30190965  0.66585517  0.47812442     0.55500
H153        H  0.28966426  0.62629108  0.54114271     0.08600
C154        C  0.21993311  0.57021388  0.60205752    -0.05200
C155        C  0.22447660  0.55244098  0.63361137    -0.06000
C156        C  0.25126715  0.58048588  0.66069037    -0.15600
C157        C  0.27402875  0.62824636  0.65611591    -0.01100
C158        C  0.27032253  0.64571146  0.62420041    -0.08700
C159        C  0.19055405  0.53859571  0.57363880     0.65600
H160        H  0.20722822  0.51615850  0.63719185     0.11000
C161        C  0.30118676  0.66115319  0.68461514     0.64000
H162        H  0.28833685  0.68186659  0.61967574     0.08400
F163        F  0.31833894  0.63677811  0.48475491    -0.19100
F164        F  0.33878395  0.70859597  0.47316045    -0.15300
F165        F  0.27650711  0.65152158  0.44821394    -0.18800
F166        F  0.20879179  0.67941936  0.62047739    -0.22200
F167        F  0.15305302  0.61399075  0.59905319    -0.23600
F168        F  0.15955950  0.67981726  0.58252335    -0.17600
F169        F  0.31518148  0.70547708  0.67549149    -0.20100
F170        F  0.33949434  0.65835325  0.69177317    -0.21300
F171        F  0.27480554  0.65127506  0.71394499    -0.18500
F172        F  0.16964867  0.49371613  0.58383703    -0.18600
F173        F  0.21679920  0.54367531  0.54503073    -0.22400
F174        F  0.15710975  0.54833570  0.56453237    -0.24000
C175        C  0.95989085  0.33319217  0.83474677    -0.10800
C176        C  0.99052796  0.37736337  0.84507775     0.11800
C177        C  0.97654216  0.39977969  0.86832578    -0.02600
C178        C  0.93196898  0.37633710  0.88116077    -0.05300
C179        C  0.90128375  0.33146703  0.87156433    -0.16100
C180        C  0.91551393  0.30935005  0.84786349     0.02800
C181        C  0.03642555  0.39990189  0.82955434     0.12800
C182        C  0.00856482  0.44818106  0.87945954     0.63400
H183        H  0.92080555  0.39301150  0.89905328     0.12800
C184        C  0.88430233  0.26124411  0.83576497     0.55500
H185        H  0.97136959  0.31746712  0.81621626     0.08600
C186        C  0.07075800  0.39110344  0.84094104    -0.05200
C187        C  0.11341167  0.41397253  0.82478635    -0.06000
C188        C  0.12235002  0.44458098  0.79751173    -0.15600
C189        C  0.08705048  0.45169497  0.78519172    -0.01100
C190        C  0.04459638  0.42900856  0.80158838    -0.08700
C191        C  0.06226084  0.35760645  0.86986465     0.65600
H192        H  0.14035278  0.40827818  0.83356914     0.11000
C193        C  0.09319139  0.48166766  0.75423777     0.64000
H194        H  0.01710026  0.43380937  0.79274678     0.08400
F195        F  0.87387471  0.23156702  0.86312781    -0.19100
F196        F  0.90415844  0.24848591  0.81040719    -0.15300
F197        F  0.84495904  0.25748213  0.82223513    -0.18800
F198        F  0.02105670  0.47681507  0.85127242    -0.22200
F199        F  0.04697906  0.45129977  0.89423581    -0.23600
F200        F  0.98871268  0.46293442  0.90333435    -0.17600
F201        F  0.05273609  0.47862578  0.74417248    -0.20100
F202        F  0.10964537  0.46871286  0.72660884    -0.21300
F203        F  0.12308188  0.52635038  0.76218881    -0.18500
F204        F  0.10076325  0.35540695  0.87778472    -0.18600
F205        F  0.02883950  0.31484701  0.86024438    -0.22400
F206        F  0.04856484  0.37017545  0.89926082    -0.24000
C207        C  0.64177397  0.29144911  0.70324683    -0.10800
C208        C  0.61618071  0.26583098  0.73147028     0.11800
C209        C  0.56847302  0.24026102  0.72911747    -0.02600
C210        C  0.54782818  0.24103288  0.69800986    -0.05300
C211        C  0.57322537  0.26617105  0.66928243    -0.16100
C212        C  0.62139186  0.29144624  0.67171355     0.02800
C213        C  0.64075124  0.26637328  0.76308853     0.12800
C214        C  0.53946443  0.21253055  0.75935461     0.63400
H215        H  0.51124435  0.22214587  0.69612138     0.12800
C216        C  0.65170099  0.31715036  0.64136282     0.55500
H217        H  0.67824834  0.31102896  0.70613204     0.08600
C218        C  0.66133911  0.23946694  0.76629555    -0.05200
C219        C  0.68455690  0.24204577  0.79684379    -0.06000
C220        C  0.68906827  0.27153544  0.82372761    -0.15600
C221        C  0.66934444  0.29957289  0.81991986    -0.01100
C222        C  0.64523789  0.29611473  0.78950234    -0.08700
C223        C  0.65937100  0.20865372  0.73736011     0.65600
H224        H  0.70022912  0.22136322  0.79960640     0.11000
C225        C  0.67327336  0.33293962  0.84739676     0.64000
H226        H  0.62993648  0.31702381  0.78577726     0.08400
F227        F  0.64160368  0.28835518  0.61364099    -0.19100
F228        F  0.69719165  0.33473019  0.64899142    -0.15300
F229        F  0.64550799  0.35289423  0.63229730    -0.18800
F230        F  0.54438776  0.24082313  0.78638235    -0.22200
F231        F  0.55255763  0.18210997  0.77007447    -0.23600
F232        F  0.49393143  0.18825140  0.75082269    -0.17600
F233        F  0.71819967  0.36596005  0.85135968    -0.20100
F234        F  0.65631984  0.31059489  0.87836050    -0.21300
F235        F  0.64920122  0.35440341  0.83880442    -0.18500
F236        F  0.68025232  0.18419720  0.74640096    -0.18600
F237        F  0.68116091  0.23414333  0.70852336    -0.22400
F238        F  0.61481973  0.17830436  0.72910132    -0.24000
C239        C  0.37442433  0.75085515  0.29246172    -0.10800
C240        C  0.39541273  0.79130694  0.27365817     0.11800
C241        C  0.39128146  0.82851962  0.28449295    -0.02600
C242        C  0.36568420  0.82371524  0.31417782    -0.05300
C243        C  0.34393072  0.78296548  0.33298393    -0.16100
C244        C  0.34889185  0.74586971  0.32225042     0.02800
C245        C  0.41918003  0.79240794  0.24149889     0.12800
C246        C  0.41261694  0.87257296  0.26421808     0.63400
H247        H  0.36173867  0.85175318  0.32256008     0.12800
C248        C  0.32620389  0.70061032  0.34096026     0.55500
H249        H  0.37772993  0.72281707  0.28308711     0.08600
C250        C  0.46322693  0.79800860  0.24165501    -0.05200
C251        C  0.48273153  0.79696505  0.21009610    -0.06000
C252        C  0.45891522  0.78877260  0.17895336    -0.15600
C253        C  0.41459442  0.78279145  0.17888038    -0.01100
C254        C  0.39556900  0.78493794  0.21040069    -0.08700
C255        C  0.48909993  0.80412457  0.27498339     0.65600
H256        H  0.51639778  0.80111910  0.20961619     0.11000
C257        C  0.38737952  0.77424388  0.14592256     0.64000
H258        H  0.36150480  0.77975754  0.21120839     0.08400
F259        F  0.34315372  0.70585175  0.37405716    -0.19100
F260        F  0.33384410  0.66903046  0.32466543    -0.15300
F261        F  0.27986600  0.68352688  0.34214442    -0.18800
F262        F  0.39115690  0.86572166  0.23274361    -0.22200
F263        F  0.45814188  0.88797128  0.25877128    -0.23600
F264        F  0.40895900  0.90604629  0.28140648    -0.17600
F265        F  0.37441091  0.73145439  0.13379531    -0.20100
F266        F  0.41314177  0.80608623  0.12117107    -0.21300
F267        F  0.34855429  0.77683803  0.15118341    -0.18500
F268        F  0.53242535  0.81170340  0.26899643    -0.18600
F269        F  0.46653011  0.76565544  0.29510107    -0.22400
F270        F  0.49279727  0.84062989  0.29299089    -0.24000
C271        C  0.65590932  0.96893565  0.99514505    -0.10800
C272        C  0.64670764  0.00239967  0.00645343     0.11800
C273        C  0.61570329  0.99304194  0.03366590    -0.02600
C274        C  0.59588493  0.95036884  0.04963662    -0.05300
C275        C  0.60483203  0.91645582  0.03846683    -0.16100
C276        C  0.63524821  0.92572679  0.01048905     0.02800
C277        C  0.66834777  0.04640987  0.98815031     0.12800
C278        C  0.60222152  0.02736240  0.04476918     0.63400
H279        H  0.57229844  0.94285131  0.07066653     0.12800
C280        C  0.64494531  0.89016279  0.99595040     0.55500
H281        H  0.67919727  0.97698384  0.97381028     0.08600
C282        C  0.71121206  0.08242945  0.99790009    -0.05200
C283        C  0.72781050  0.12428744  0.98113038    -0.06000
C284        C  0.70335454  0.13085665  0.95471390    -0.15600
C285        C  0.66158852  0.09370997  0.94353092    -0.01100
C286        C  0.64484314  0.05196428  0.96066335    -0.08700
C287        C  0.73939943  0.07651064  0.02562750     0.65600
H288        H  0.76000413  0.15260545  0.98899036     0.11000
C289        C  0.63483652  0.09747152  0.91360356     0.64000
H290        H  0.61255461  0.02334914  0.95328766     0.08400
F291        F  0.66781609  0.87922717  0.02013936    -0.19100
F292        F  0.67152810  0.90523422  0.96658176    -0.15300
F293        F  0.60471544  0.85184453  0.98722685    -0.18800
F294        F  0.58072640  0.03559137  0.01780414    -0.22200
F295        F  0.64005607  0.06751387  0.05408804    -0.23600
F296        F  0.57287004  0.01209623  0.07260082    -0.17600
F297        F  0.59981528  0.05555144  0.90364229    -0.20100
F298        F  0.66290729  0.11682688  0.88540878    -0.21300
F299        F  0.61617682  0.12366371  0.92307102    -0.18500
F300        F  0.78021423  0.11589604  0.03095185    -0.18600
F301        F  0.74879717  0.04317295  0.01589001    -0.22400
F302        F  0.71608807  0.06423363  0.05650131    -0.24000
C303        C  0.38717678  0.65608589  0.87735386    -0.10800
C304        C  0.37689766  0.63070253  0.90781310     0.11800
C305        C  0.34427017  0.58414170  0.90754409    -0.02600
C306        C  0.32373764  0.56416428  0.87608453    -0.05300
C307        C  0.33428471  0.58929813  0.84527728    -0.16100
C308        C  0.36675873  0.63621599  0.84580362     0.02800
C309        C  0.40079333  0.65437822  0.93964199     0.12800
C310        C  0.33121165  0.55574796  0.94027588     0.63400
H311        H  0.29865509  0.52853382  0.87541522     0.12800
C312        C  0.38095005  0.66522503  0.81342027     0.55500
H313        H  0.41170271  0.69186640  0.87860406     0.08600
C314        C  0.44549987  0.66421275  0.94669132    -0.05200
C315        C  0.46680010  0.68851185  0.97657912    -0.06000
C316        C  0.44513450  0.70352284  0.99943950    -0.15600
C317        C  0.39980036  0.69291339  0.99251923    -0.01100
C318        C  0.37875893  0.66895589  0.96226698    -0.08700
C319        C  0.47099325  0.64990440  0.92242961     0.65600
H320        H  0.50132692  0.69684814  0.98186981     0.11000
C321        C  0.37302075  0.70552913  0.01689487     0.64000
H322        H  0.34474053  0.66141901  0.95581353     0.08400
F323        F  0.39369708  0.64526741  0.78822005    -0.19100
F324        F  0.41740625  0.70800332  0.81937211    -0.15300
F325        F  0.34533744  0.67015291  0.80160599    -0.18800
F326        F  0.31326358  0.57258418  0.96398461    -0.22200
F327        F  0.36893240  0.55664468  0.95438050    -0.23600
F328        F  0.29905448  0.51107878  0.93408206    -0.17600
F329        F  0.39211762  0.75199371  0.01803311    -0.20100
F330        F  0.37279339  0.68902495  0.04956101    -0.21300
F331        F  0.32836617  0.68752131  0.00654793    -0.18500
F332        F  0.51277412  0.65987993  0.93561014    -0.18600
F333        F  0.47821812  0.67225039  0.89128427    -0.22400
F334        F  0.44624622  0.60383728  0.91687002    -0.24000
C335        C  0.67286752  0.46794524  0.40425894    -0.10800
C336        C  0.63768799  0.42322925  0.40080996     0.11800
C337        C  0.62665774  0.40259913  0.36807405    -0.02600
C338        C  0.65309550  0.42713266  0.33970561    -0.05300
C339        C  0.68951511  0.47149693  0.34306682    -0.16100
C340        C  0.69941967  0.49272701  0.37586967     0.02800
C341        C  0.61397580  0.39801049  0.43222532     0.12800
C342        C  0.58738048  0.35475785  0.36326995     0.63400
H343        H  0.64550523  0.41164440  0.31448556     0.12800
C344        C  0.73861532  0.54038902  0.38146682     0.55500
H345        H  0.67988873  0.48285469  0.42968720     0.08600
C346        C  0.63127087  0.37572402  0.45260890    -0.05200
C347        C  0.60560295  0.34984244  0.48081658    -0.06000
C348        C  0.56383968  0.34629403  0.48951647    -0.15600
C349        C  0.54729186  0.36999896  0.46946970    -0.01100
C350        C  0.57306101  0.39567486  0.44109267    -0.08700
C351        C  0.67709441  0.38011559  0.44496181     0.65600
H352        H  0.61825637  0.33217854  0.49641575     0.11000
C353        C  0.50310822  0.36884724  0.47775436     0.64000
H354        H  0.56118978  0.41370449  0.42508563     0.08400
F355        F  0.74441063  0.55216325  0.41596358    -0.19100
F356        F  0.73055133  0.57105995  0.36401028    -0.15300
F357        F  0.77847913  0.54366687  0.36972023    -0.18800
F358        F  0.54734086  0.35257477  0.37307861    -0.22200
F359        F  0.59394091  0.32481755  0.38314270    -0.23600
F360        F  0.58293799  0.34100792  0.32929969    -0.17600
F361        F  0.49611772  0.39759953  0.45666121    -0.20100
F362        F  0.50373043  0.38218793  0.51145386    -0.21300
F363        F  0.46703634  0.32557835  0.47308109    -0.18500
F364        F  0.68604816  0.35306808  0.46646799    -0.18600
F365        F  0.71086586  0.42447060  0.44961549    -0.22400
F366        F  0.67862132  0.36765183  0.41137978    -0.24000
C367        C  0.04841975  0.69796961  0.35741773    -0.10800
C368        C  0.04242805  0.66871103  0.33019917     0.11800
C369        C  0.07927546  0.66429200  0.31850305    -0.02600
C370        C  0.12076907  0.68766318  0.33607666    -0.05300
C371        C  0.12662330  0.71599146  0.36410959    -0.16100
C372        C  0.09002167  0.72180802  0.37483550     0.02800
C373        C  0.99693508  0.64340141  0.31437498     0.12800
C374        C  0.07474787  0.63530681  0.28750604     0.63400
H375        H  0.14922807  0.68411388  0.32791831     0.12800
C376        C  0.09400450  0.75150425  0.40519091     0.55500
H377        H  0.01974541  0.70138688  0.36519449     0.08600
C378        C  0.96233756  0.60264102  0.32884340    -0.05200
C379        C  0.91942836  0.58140850  0.31319386    -0.06000
C380        C  0.90968775  0.60049016  0.28452644    -0.15600
C381        C  0.94478824  0.64143856  0.26997928    -0.01100
C382        C  0.98792346  0.66209513  0.28536697    -0.08700
C383        C  0.97032392  0.58257016  0.36135589     0.65600
H384        H  0.89251429  0.55038901  0.32421864     0.11000
C385        C  0.93740803  0.66355926  0.23845354     0.64000
H386        H  0.01504877  0.69373330  0.27528726     0.08400
F387        F  0.05290481  0.74834231  0.41318614    -0.19100
F388        F  0.12445083  0.79622073  0.39746029    -0.15300
F389        F  0.10865254  0.73848451  0.43402168    -0.18800
F390        F  0.06397153  0.65187884  0.25863903    -0.22200
F391        F  0.04095732  0.59116575  0.29315565    -0.23600
F392        F  0.11458101  0.63516679  0.28079017    -0.17600
F393        F  0.90862955  0.67977929  0.24659080    -0.20100
F394        F  0.91897978  0.63249945  0.21201903    -0.21300
F395        F  0.97755531  0.69966956  0.22651547    -0.18500
F396        F  0.93250573  0.54203120  0.37049833    -0.18600
F397        F  0.98055123  0.61227231  0.38842694    -0.22400
F398        F  0.00592343  0.57462273  0.35653678    -0.24000
C399        C  0.68897378  0.66885291  0.20661407    -0.10800
C400        C  0.66690897  0.65344550  0.17492903     0.11800
C401        C  0.66685591  0.61670242  0.15832548    -0.02600
C402        C  0.68794390  0.59541473  0.17481891    -0.05300
C403        C  0.70947674  0.61006906  0.20693407    -0.16100
C404        C  0.71005472  0.64753864  0.22330170     0.02800
C405        C  0.64328531  0.67597888  0.15997728     0.12800
C406        C  0.64512332  0.60051085  0.12315127     0.63400
H407        H  0.68817908  0.56718996  0.16240068     0.12800
C408        C  0.73093126  0.66398061  0.25867614     0.55500
H409        H  0.68878194  0.69744556  0.21843167     0.08600
C410        C  0.59870520  0.66379653  0.16997175    -0.05200
C411        C  0.57798623  0.68599381  0.15425440    -0.06000
C412        C  0.60051832  0.71991724  0.12924121    -0.15600
C413        C  0.64514751  0.73165937  0.11900614    -0.01100
C414        C  0.66596755  0.70971959  0.13508679    -0.08700
C415        C  0.57334011  0.62766870  0.19723243     0.65600
H416        H  0.54396967  0.67732439  0.16178481     0.11000
C417        C  0.67015162  0.76564554  0.09037725     0.64000
H418        H  0.70016450  0.71835205  0.12811679     0.08400
F419        F  0.72316002  0.69750352  0.27099293    -0.19100
F420        F  0.77732446  0.68167281  0.25707342    -0.15300
F421        F  0.71226895  0.62842161  0.28194598    -0.18800
F422        F  0.66780145  0.63435019  0.09901895    -0.22200
F423        F  0.60018407  0.58947275  0.12399944    -0.23600
F424        F  0.64666804  0.56266745  0.11251953    -0.17600
F425        F  0.68098313  0.80852969  0.10085668    -0.20100
F426        F  0.64321484  0.75402572  0.06123697    -0.21300
F427        F  0.71010019  0.76687502  0.08148521    -0.18500
F428        F  0.52987679  0.62009134  0.20236578    -0.18600
F429        F  0.59619438  0.64097584  0.22824211    -0.22400
F430        F  0.56998993  0.58725807  0.18741874    -0.24000
C431        C  0.74301535  0.38347563  0.12993534    -0.10800
C432        C  0.76528395  0.40847754  0.10047489     0.11800
C433        C  0.78635622  0.45612502  0.10082762    -0.02600
C434        C  0.78565591  0.47739046  0.13149604    -0.05300
C435        C  0.76396666  0.45266307  0.16146811    -0.16100
C436        C  0.74189258  0.40459037  0.16067468     0.02800
C437        C  0.76424115  0.38347353  0.06911502     0.12800
C438        C  0.80934993  0.48436812  0.06894035     0.63400
H439        H  0.80182792  0.51388607  0.13208102     0.12800
C440        C  0.71763820  0.37531019  0.19180574     0.55500
H441        H  0.72629258  0.34696704  0.12846202     0.08600
C442        C  0.79517328  0.36794381  0.06391032    -0.05200
C443        C  0.79284245  0.34567085  0.03299805    -0.06000
C444        C  0.75972193  0.33711512  0.00775333    -0.15600
C445        C  0.72716242  0.35088547  0.01405404    -0.01100
C446        C  0.73042776  0.37413345  0.04471785    -0.08700
C447        C  0.82976777  0.37398828  0.09123987     0.65600
H448        H  0.81688739  0.33428128  0.02859921     0.11000
C449        C  0.68875674  0.34107794  0.98921027     0.64000
H450        H  0.70650182  0.38544904  0.05008205     0.08400
F451        F  0.74701985  0.38804810  0.21951776    -0.19100
F452        F  0.70193735  0.32994339  0.18566740    -0.15300
F453        F  0.68063826  0.37984559  0.20008831    -0.18800
F454        F  0.77830894  0.47248970  0.04246672    -0.22200
F455        F  0.84407145  0.47724735  0.05858488    -0.23600
F456        F  0.82756929  0.53015484  0.07494973    -0.17600
F457        F  0.66218113  0.29489946  0.98454498    -0.20100
F458        F  0.70620478  0.36216077  0.95791694    -0.21300
F459        F  0.66086192  0.35663333  0.00139452    -0.18500
F460        F  0.85810010  0.35833005  0.08029334    -0.18600
F461        F  0.80759239  0.35013389  0.12058314    -0.22400
F462        F  0.85639046  0.41917498  0.09941713    -0.24000
loop_ 
_geom_bond_atom_site_label_1 
_geom_bond_atom_site_label_2 
_geom_bond_distance 
_geom_bond_site_symmetry_2 
_ccdc_geom_bond_type 
O1            C4   1.265       .  A
O1           Cd6   2.464       .  S
C2           O11   1.262       .  A
C2            O7   1.266       .  A
C2          C339   1.481       .  S
O3            C9   1.262       .  A
O3           Cd6   2.443       .  S
C4           O12   1.266       .  A
C4          C435   1.489       .  S
C5           O10   1.263       .  A
C5            O8   1.265       .  A
C5          C403   1.484       .  S
Cd6          O13   2.466       .  S
Cd6          O12   2.445       .  S
Cd6          O11   2.462       .  S
Cd6           O7   2.451       .  S
Cd6          O10   2.463       .  S
Cd6           O8   2.451       .  S
C9           O13   1.266       .  A
C9          C380   1.487       .  S
O14          C17   1.262       .  A
O14         Cd19   2.466       .  S
C15          O24   1.265       .  A
C15          O20   1.263       .  A
C15         C252   1.476       .  S
O16          C22   1.264       .  A
O16         Cd19   2.448       .  S
C17          O25   1.265       .  A
C17         C316   1.487   1_554  S
C18          O23   1.263       .  A
C18          O21   1.265       .  A
C18         C275   1.487       .  S
Cd19         O26   2.458       .  S
Cd19         O25   2.443       .  S
Cd19         O24   2.447       .  S
Cd19         O20   2.440       .  S
Cd19         O23   2.463       .  S
Cd19         O21   2.460       .  S
C22          O26   1.266       .  A
C22         C412   1.483       .  S
O27          C30   1.263       .  A
O27         Cd32   2.462       .  S
C28          O37   1.265       .  A
C28          O33   1.262       .  A
C28         C444   1.492   1_556  S
O29          C35   1.266       .  A
O29         Cd32   2.450       .  S
C30          O38   1.266       .  A
C30         C220   1.489       .  S
C31          O36   1.263       .  A
C31          O34   1.265       .  A
C31         C179   1.488       .  S
Cd32         O39   2.470       .  S
Cd32         O38   2.446       .  S
Cd32         O37   2.458       .  S
Cd32         O33   2.448       .  S
Cd32         O36   2.454       .  S
Cd32         O34   2.471       .  S
C35          O39   1.264       .  A
C35         C284   1.484       .  S
O40          C43   1.265       .  A
O40         Cd45   2.452       .  S
C41          O50   1.264       .  A
C41          O46   1.263       .  A
C41         C307   1.485       .  S
O42          C48   1.266       .  A
O42         Cd45   2.473       .  S
C43          O51   1.266       .  A
C43         C156   1.490       .  S
C44          O49   1.263       .  A
C44          O47   1.265       .  A
C44         C115   1.484       .  S
Cd45         O52   2.449       .  S
Cd45         O51   2.457       .  S
Cd45         O50   2.457       .  S
Cd45         O46   2.477       .  S
Cd45         O49   2.460       .  S
Cd45         O47   2.468       .  S
C48          O52   1.263       .  A
C48         C188   1.485       .  S
O53          C56   1.264       .  A
O53         Cd58   2.448       .  S
C54          O63   1.267       .  A
C54          O59   1.262       .  A
C54         C211   1.487       .  S
O55          C61   1.264       .  A
O55         Cd58   2.470       .  S
C56          O64   1.262       .  A
C56         C348   1.484       .  S
C57          O62   1.265       .  A
C57          O60   1.263       .  A
C57          C83   1.484       .  S
Cd58         O65   2.452       .  S
Cd58         O64   2.446       .  S
Cd58         O63   2.450       .  S
Cd58         O59   2.453       .  S
Cd58         O62   2.467       .  S
Cd58         O60   2.450       .  S
C61          O65   1.264       .  A
C61         C124   1.483       .  S
O66          C69   1.264       .  A
O66         Cd71   2.453       .  S
C67          O76   1.265       .  A
C67          O72   1.262       .  A
C67         C147   1.486       .  S
O68          C74   1.263       .  A
O68         Cd71   2.469       .  S
C69          O77   1.267       .  A
C69         C243   1.486       .  S
C70          O75   1.264       .  A
C70          O73   1.264       .  A
C70         C371   1.481       .  S
Cd71         O78   2.462       .  S
Cd71         O77   2.456       .  S
Cd71         O76   2.469       .  S
Cd71         O72   2.457       .  S
Cd71         O75   2.469       .  S
Cd71         O73   2.454       .  S
C74          O78   1.264       .  A
C74          C92   1.480       .  S
C79          C80   1.399       .  A
C79          C84   1.405       .  A
C79          H89   1.084       .  S
C80          C85   1.479   1_545  S
C80          C81   1.413       .  A
C81          C82   1.406       .  A
C81          C86   1.521       .  S
C82          C83   1.407       .  A
C82          H87   1.083       .  S
C83          C84   1.422       .  A
C84          C88   1.520       .  S
C85          C90   1.414       .  A
C85          C94   1.400       .  A
C86         F102   1.382       .  S
C86         F103   1.382       .  S
C86         F104   1.384       .  S
C88          F99   1.383       .  S
C88         F100   1.385       .  S
C88         F101   1.384       .  S
C90          C91   1.405       .  A
C90          C95   1.521   1_565  S
C91          C92   1.405       .  A
C91          H96   1.083       .  S
C92          C93   1.420       .  A
C93          C94   1.406       .  A
C93          C97   1.519       .  S
C94          H98   1.083       .  S
C95         F108   1.385       .  S
C95         F109   1.382       .  S
C95         F110   1.382       .  S
C97         F105   1.385       .  S
C97         F106   1.383       .  S
C97         F107   1.383       .  S
C111        C112   1.400       .  A
C111        C116   1.407       .  A
C111        H121   1.083       .  S
C112        C117   1.483       .  S
C112        C113   1.414       .  A
C113        C114   1.406       .  A
C113        C118   1.520       .  S
C114        C115   1.406       .  A
C114        H119   1.083       .  S
C115        C116   1.421       .  A
C116        C120   1.519       .  S
C117        C122   1.414       .  A
C117        C126   1.402       .  A
C118        F134   1.382       .  S
C118        F135   1.382       .  S
C118        F136   1.385       .  S
C120        F131   1.385       .  S
C120        F132   1.383       .  S
C120        F133   1.384       .  S
C122        C123   1.404       .  A
C122        C127   1.520       .  S
C123        C124   1.405       .  A
C123        H128   1.083       .  S
C124        C125   1.421       .  A
C125        C126   1.408       .  A
C125        C129   1.519       .  S
C126        H130   1.083       .  S
C127        F140   1.385       .  S
C127        F141   1.382       .  S
C127        F142   1.382       .  S
C129        F137   1.383       .  S
C129        F138   1.384       .  S
C129        F139   1.385       .  S
C143        C144   1.401       .  A
C143        C148   1.407       .  A
C143        H153   1.083       .  S
C144        C149   1.481       .  S
C144        C145   1.414       .  A
C145        C146   1.405       .  A
C145        C150   1.521       .  S
C146        C147   1.407       .  A
C146        H151   1.083       .  S
C147        C148   1.423       .  A
C148        C152   1.521       .  S
C149        C154   1.413       .  A
C149        C158   1.399       .  A
C150        F166   1.382       .  S
C150        F167   1.382       .  S
C150        F168   1.384       .  S
C152        F163   1.385       .  S
C152        F164   1.382       .  S
C152        F165   1.384       .  S
C154        C155   1.407       .  A
C154        C159   1.520       .  S
C155        C156   1.410       .  A
C155        H160   1.082       .  S
C156        C157   1.424       .  A
C157        C158   1.405       .  A
C157        C161   1.520       .  S
C158        H162   1.083       .  S
C159        F172   1.385       .  S
C159        F173   1.382       .  S
C159        F174   1.382       .  S
C161        F169   1.385       .  S
C161        F170   1.383       .  S
C161        F171   1.384       .  S
C175        C176   1.399       .  A
C175        C180   1.406       .  A
C175        H185   1.083       .  S
C176        C181   1.482   1_655  S
C176        C177   1.414       .  A
C177        C178   1.407       .  A
C177        C182   1.521   1_655  S
C178        C179   1.408       .  A
C178        H183   1.083       .  S
C179        C180   1.423       .  A
C180        C184   1.520       .  S
C181        C186   1.415       .  A
C181        C190   1.399       .  A
C182        F198   1.382       .  S
C182        F199   1.382       .  S
C182        F200   1.385   1_455  S
C184        F195   1.383       .  S
C184        F196   1.385       .  S
C184        F197   1.384       .  S
C186        C187   1.407       .  A
C186        C191   1.520       .  S
C187        C188   1.407       .  A
C187        H192   1.083       .  S
C188        C189   1.422       .  A
C189        C190   1.405       .  A
C189        C193   1.520       .  S
C190        H194   1.083       .  S
C191        F204   1.384       .  S
C191        F205   1.382       .  S
C191        F206   1.382       .  S
C193        F201   1.385       .  S
C193        F202   1.384       .  S
C193        F203   1.382       .  S
C207        C208   1.399       .  A
C207        C212   1.406       .  A
C207        H217   1.083       .  S
C208        C213   1.479       .  S
C208        C209   1.412       .  A
C209        C210   1.403       .  A
C209        C214   1.520       .  S
C210        C211   1.407       .  A
C210        H215   1.082       .  S
C211        C212   1.425       .  A
C212        C216   1.521       .  S
C213        C218   1.412       .  A
C213        C222   1.400       .  A
C214        F230   1.382       .  S
C214        F231   1.382       .  S
C214        F232   1.385       .  S
C216        F227   1.383       .  S
C216        F228   1.385       .  S
C216        F229   1.382       .  S
C218        C219   1.403       .  A
C218        C223   1.521       .  S
C219        C220   1.408       .  A
C219        H224   1.082       .  S
C220        C221   1.425       .  A
C221        C222   1.408       .  A
C221        C225   1.521       .  S
C222        H226   1.083       .  S
C223        F236   1.384       .  S
C223        F237   1.382       .  S
C223        F238   1.382       .  S
C225        F233   1.383       .  S
C225        F234   1.383       .  S
C225        F235   1.385       .  S
C239        C240   1.399       .  A
C239        C244   1.406       .  A
C239        H249   1.083       .  S
C240        C245   1.479       .  S
C240        C241   1.413       .  A
C241        C242   1.405       .  A
C241        C246   1.520       .  S
C242        C243   1.407       .  A
C242        H247   1.083       .  S
C243        C244   1.423       .  A
C244        C248   1.520       .  S
C245        C250   1.414       .  A
C245        C254   1.401       .  A
C246        F262   1.382       .  S
C246        F263   1.382       .  S
C246        F264   1.385       .  S
C248        F259   1.383       .  S
C248        F260   1.385       .  S
C248        F261   1.383       .  S
C250        C251   1.404       .  A
C250        C255   1.519       .  S
C251        C252   1.404       .  A
C251        H256   1.083       .  S
C252        C253   1.419       .  A
C253        C254   1.405       .  A
C253        C257   1.520       .  S
C254        H258   1.083       .  S
C255        F268   1.385       .  S
C255        F269   1.382       .  S
C255        F270   1.382       .  S
C257        F265   1.383       .  S
C257        F266   1.384       .  S
C257        F267   1.384       .  S
C271        C272   1.400   1_566  A
C271        C276   1.408   1_556  A
C271        H281   1.083       .  S
C272        C277   1.480   1_554  S
C272        C273   1.413   1_545  A
C273        C274   1.405       .  A
C273        C278   1.521   1_565  S
C274        C275   1.407       .  A
C274        H279   1.083       .  S
C275        C276   1.423       .  A
C276        C280   1.520   1_554  S
C277        C282   1.413       .  A
C277        C286   1.401       .  A
C278        F294   1.382       .  S
C278        F295   1.382       .  S
C278        F296   1.384       .  S
C280        F291   1.383   1_556  S
C280        F292   1.384       .  S
C280        F293   1.384       .  S
C282        C283   1.404       .  A
C282        C287   1.520   1_556  S
C283        C284   1.406       .  A
C283        H288   1.083       .  S
C284        C285   1.422       .  A
C285        C286   1.407       .  A
C285        C289   1.519       .  S
C286        H290   1.084       .  S
C287        F300   1.385       .  S
C287        F301   1.382       .  S
C287        F302   1.381       .  S
C289        F297   1.385       .  S
C289        F298   1.384       .  S
C289        F299   1.382       .  S
C303        C304   1.400       .  A
C303        C308   1.406       .  A
C303        H313   1.083       .  S
C304        C309   1.480       .  S
C304        C305   1.413       .  A
C305        C306   1.405       .  A
C305        C310   1.520       .  S
C306        C307   1.407       .  A
C306        H311   1.083       .  S
C307        C308   1.421       .  A
C308        C312   1.519       .  S
C309        C314   1.412       .  A
C309        C318   1.401       .  A
C310        F326   1.382       .  S
C310        F327   1.382       .  S
C310        F328   1.385       .  S
C312        F323   1.383       .  S
C312        F324   1.385       .  S
C312        F325   1.382       .  S
C314        C315   1.402       .  A
C314        C319   1.520       .  S
C315        C316   1.407       .  A
C315        H320   1.082       .  S
C316        C317   1.424       .  A
C317        C318   1.408       .  A
C317        C321   1.521   1_556  S
C318        H322   1.083       .  S
C319        F332   1.385       .  S
C319        F333   1.382       .  S
C319        F334   1.382       .  S
C321        F329   1.383       .  S
C321        F330   1.384       .  S
C321        F331   1.385       .  S
C335        C336   1.399       .  A
C335        C340   1.407       .  A
C335        H345   1.083       .  S
C336        C341   1.476       .  S
C336        C337   1.412       .  A
C337        C338   1.402       .  A
C337        C342   1.520       .  S
C338        C339   1.405       .  A
C338        H343   1.083       .  S
C339        C340   1.423       .  A
C340        C344   1.520       .  S
C341        C346   1.412       .  A
C341        C350   1.399       .  A
C342        F358   1.382       .  S
C342        F359   1.382       .  S
C342        F360   1.384       .  S
C344        F355   1.385       .  S
C344        F356   1.383       .  S
C344        F357   1.383       .  S
C346        C347   1.402       .  A
C346        C351   1.521       .  S
C347        C348   1.408       .  A
C347        H352   1.082       .  S
C348        C349   1.424       .  A
C349        C350   1.406       .  A
C349        C353   1.521       .  S
C350        H354   1.083       .  S
C351        F364   1.384       .  S
C351        F365   1.382       .  S
C351        F366   1.382       .  S
C353        F361   1.384       .  S
C353        F362   1.384       .  S
C353        F363   1.383       .  S
C367        C368   1.401       .  A
C367        C372   1.406       .  A
C367        H377   1.083       .  S
C368        C373   1.479   1_455  S
C368        C369   1.413       .  A
C369        C370   1.405       .  A
C369        C374   1.520       .  S
C370        C371   1.406       .  A
C370        H375   1.083       .  S
C371        C372   1.420       .  A
C372        C376   1.519       .  S
C373        C378   1.413       .  A
C373        C382   1.399       .  A
C374        F390   1.382       .  S
C374        F391   1.382       .  S
C374        F392   1.384       .  S
C376        F387   1.385       .  S
C376        F388   1.383       .  S
C376        F389   1.383       .  S
C378        C379   1.405       .  A
C378        C383   1.521       .  S
C379        C380   1.407       .  A
C379        H384   1.083       .  S
C380        C381   1.424       .  A
C381        C382   1.406       .  A
C381        C385   1.520       .  S
C382        H386   1.083   1_655  S
C383        F396   1.384       .  S
C383        F397   1.382       .  S
C383        F398   1.382   1_655  S
C385        F393   1.383       .  S
C385        F394   1.384       .  S
C385        F395   1.385       .  S
C399        C400   1.401       .  A
C399        C404   1.407       .  A
C399        H409   1.084       .  S
C400        C405   1.480       .  S
C400        C401   1.413       .  A
C401        C402   1.404       .  A
C401        C406   1.521       .  S
C402        C403   1.407       .  A
C402        H407   1.083       .  S
C403        C404   1.423       .  A
C404        C408   1.520       .  S
C405        C410   1.414       .  A
C405        C414   1.400       .  A
C406        F422   1.382       .  S
C406        F423   1.382       .  S
C406        F424   1.384       .  S
C408        F419   1.385       .  S
C408        F420   1.383       .  S
C408        F421   1.384       .  S
C410        C411   1.405       .  A
C410        C415   1.521       .  S
C411        C412   1.406       .  A
C411        H416   1.083       .  S
C412        C413   1.422       .  A
C413        C414   1.407       .  A
C413        C417   1.520       .  S
C414        H418   1.084       .  S
C415        F428   1.384       .  S
C415        F429   1.382       .  S
C415        F430   1.382       .  S
C417        F425   1.383       .  S
C417        F426   1.384       .  S
C417        F427   1.384       .  S
C431        C432   1.400       .  A
C431        C436   1.408       .  A
C431        H441   1.083       .  S
C432        C437   1.480       .  S
C432        C433   1.413       .  A
C433        C434   1.404       .  A
C433        C438   1.521       .  S
C434        C435   1.408       .  A
C434        H439   1.082       .  S
C435        C436   1.424       .  A
C436        C440   1.520       .  S
C437        C442   1.411       .  A
C437        C446   1.399       .  A
C438        F454   1.382       .  S
C438        F455   1.382       .  S
C438        F456   1.385       .  S
C440        F451   1.383       .  S
C440        F452   1.385       .  S
C440        F453   1.383       .  S
C442        C443   1.405       .  A
C442        C447   1.520       .  S
C443        C444   1.410       .  A
C443        H448   1.082       .  S
C444        C445   1.426       .  A
C445        C446   1.407       .  A
C445        C449   1.521   1_554  S
C446        H450   1.083       .  S
C447        F460   1.385       .  S
C447        F461   1.382       .  S
C447        F462   1.382       .  S
C449        F457   1.384       .  S
C449        F458   1.383       .  S
C449        F459   1.385   1_556  S
