geometry optimzed in LAMMPS
_audit_creation_date              2020-12-01 
_audit_creation_method            'lammps2cif' 
_symmetry_space_group_name_H-M    'P1' 
_symmetry_Int_Tables_number       1 
_symmetry_cell_setting            triclinic 
loop_ 
_symmetry_equiv_pos_as_xyz 
  x,y,z 
_cell_length_a                    36.45421681 
_cell_length_b                    40.13342549652692 
_cell_length_c                    37.99201695996466 
_cell_angle_alpha                 90.54453997543065 
_cell_angle_beta                  90.27419188883202 
_cell_angle_gamma                 89.51742929486433 
loop_ 
_atom_site_label 
_atom_site_type_symbol 
_atom_site_fract_x 
_atom_site_fract_y 
_atom_site_fract_z 
_atom_site_charge 
C1          C  0.78208712  0.85994760  0.01642834     0.79800
N2          N  0.80327663  0.88689787  0.01114350    -0.78500
C3          C  0.82755813  0.88781106  0.98431235     0.82200
N4          N  0.83015516  0.86074358  0.96165720    -0.78500
C5          C  0.80751278  0.83355420  0.96574966     0.82300
N6          N  0.78389400  0.83398805  0.99331607    -0.80200
C7          C  0.75596628  0.15483771  0.02980599     0.79800
N8          N  0.78656586  0.13482240  0.03358629    -0.78500
C9          C  0.79673542  0.11334743  0.00677862     0.82200
N10         N  0.77621045  0.11306267  0.97635923    -0.78500
C11         C  0.74645880  0.13380885  0.97225949     0.82300
N12         N  0.73692200  0.15410088  0.99928455    -0.80200
C13         C  0.12112242  0.90272645  0.02710629     0.79800
N14         N  0.08771886  0.91702199  0.02242556    -0.78500
C15         C  0.07260013  0.91971706  0.98996620     0.82200
N16         N  0.09178479  0.90889380  0.96122018    -0.78500
C17         C  0.12550618  0.89437789  0.96586257     0.82300
N18         N  0.13935298  0.89102958  0.99873363    -0.80200
C19         C  0.77831309  0.03103458  0.83482587     0.79800
N20         N  0.75934235  0.00311258  0.82812114    -0.78500
C21         C  0.76315660  0.97585447  0.84820692     0.82200
N22         N  0.78626039  0.97725728  0.87708747    -0.78500
C23         C  0.80676158  0.00551256  0.88361476     0.82300
N24         N  0.80247584  0.03215807  0.86206534    -0.80200
C25         C  0.89820200  0.17889704  0.85854433     0.79800
N26         N  0.93048959  0.18752761  0.84501073    -0.78500
C27         C  0.96216783  0.17406935  0.85556692     0.82200
N28         N  0.96178911  0.15065675  0.88206584    -0.78500
C29         C  0.92890517  0.14058775  0.89672658     0.82300
N30         N  0.89682795  0.15508888  0.88440350    -0.80200
C31         C  0.89961265  0.90138591  0.81999797     0.79800
N32         N  0.92652471  0.88083710  0.80861409    -0.78500
C33         C  0.95962643  0.87983933  0.82476270     0.82200
N34         N  0.96573702  0.89946564  0.85388444    -0.78500
C35         C  0.93876415  0.92106960  0.86492901     0.82300
N36         N  0.90622443  0.92194778  0.84760973    -0.80200
C37         C  0.07103328  0.06247031  0.83426397     0.79800
N38         N  0.08594329  0.03417905  0.82120335    -0.78500
C39         C  0.08056548  0.00474248  0.83672101     0.82200
N40         N  0.06061954  0.00322425  0.86666611    -0.78500
C41         C  0.04619267  0.03168662  0.88063134     0.82300
N42         N  0.05051623  0.06107860  0.86386322    -0.80200
C43         C  0.90185221  0.83428103  0.11815461     0.79800
N44         N  0.93184366  0.81491121  0.12037044    -0.78500
C45         C  0.96544183  0.82523837  0.11116905     0.82200
N46         N  0.96879051  0.85647594  0.09682842    -0.78500
C47         C  0.93837808  0.87700180  0.09307401     0.82300
N48         N  0.90500546  0.86591424  0.10504360    -0.80200
C49         C  0.77002431  0.03263522  0.14790622     0.79800
N50         N  0.75650020  0.00633007  0.16549603    -0.78500
C51         C  0.76923620  0.97500410  0.16033460     0.82200
N52         N  0.79760560  0.96964319  0.13689355    -0.78500
C53         C  0.81217918  0.99638662  0.11920666     0.82300
N54         N  0.79766974  0.02729254  0.12477531    -0.80200
C55         C  0.89508092  0.12632611  0.18827612     0.79800
N56         N  0.89875671  0.11303438  0.15518335    -0.78500
C57         C  0.93189427  0.10037965  0.14409265     0.82200
N58         N  0.96210608  0.10347993  0.16637495    -0.78500
C59         C  0.95859051  0.11840476  0.19925767     0.82300
N60         N  0.92478980  0.12857471  0.20920493    -0.80200
Zr61       Zr  0.22627852  0.28576666  0.30349359     2.17500
O62         O  0.28395159  0.29621981  0.33437280    -0.51800
O63         O  0.21770382  0.33910285  0.33248350    -0.75000
O64         O  0.28056161  0.30470449  0.27693734    -0.81700
O65         O  0.17424230  0.25482597  0.37651174    -0.83500
O66         O  0.26087060  0.32977027  0.22726155    -0.79100
O67         O  0.23018097  0.25193867  0.35469304    -0.90800
O68         O  0.16843790  0.36536042  0.30936452    -0.76700
O69         O  0.19744883  0.32016460  0.26087699    -0.86200
O70         O  0.16341487  0.28955513  0.32050833    -0.85900
O71         O  0.23962570  0.25892203  0.24801886    -0.72700
O72         O  0.20660612  0.22893030  0.30626228    -0.84800
Zr73       Zr  0.12600063  0.24016678  0.22418181     2.26400
Zr74       Zr  0.20888693  0.29340216  0.20536381     2.06300
Zr75       Zr  0.14240132  0.23237974  0.32230033     2.10000
Zr76       Zr  0.13466178  0.32288498  0.27733748     1.78800
O77         O  0.15388837  0.18439151  0.35963929    -0.93600
O78         O  0.12996590  0.37441058  0.24402407    -0.41400
O79         O  0.11211981  0.26667462  0.27906911    -0.78000
O80         O  0.14524082  0.29688042  0.22136077    -0.96700
O81         O  0.18857965  0.23688605  0.20702381    -0.90000
O82         O  0.15525467  0.20593788  0.26690238    -0.92900
C83         C  0.19747639  0.36503578  0.32841661     1.00900
C84         C  0.20902300  0.26040939  0.37956825     1.13800
C85         C  0.28382264  0.32668961  0.25338041     1.04600
O86         O  0.18903329  0.34247624  0.17303475    -0.95000
O87         O  0.18158401  0.26548748  0.15146143    -0.90800
O88         O  0.12216664  0.25744065  0.16455538    -0.83900
C89         C  0.14863755  0.25597468  0.14296010     1.11200
O90         O  0.27787345  0.19119369  0.27495378    -0.97000
Zr91       Zr  0.21751826  0.20298963  0.25001531     1.88900
O92         O  0.13417676  0.18774380  0.19388299    -0.73600
O93         O  0.26013765  0.29098943  0.16449095    -0.52900
O94         O  0.26104385  0.18934924  0.20350221    -0.97600
O95         O  0.21790023  0.15101823  0.28279434    -0.54800
O96         O  0.18782135  0.16396907  0.20975671    -0.74200
C97         C  0.15743069  0.16386634  0.19249003     0.98200
O98         O  0.06484057  0.25582142  0.20360492    -0.63000
O99         O  0.08872058  0.24685927  0.35728914    -0.57800
O100        O  0.08169943  0.20158908  0.24380168    -0.94500
O101        O  0.09172444  0.19278288  0.30222257    -0.92900
O102        O  0.09667263  0.33418252  0.32873541    -0.93200
O103        O  0.07212219  0.33508502  0.25818351    -0.92000
C104        C  0.07493798  0.18659905  0.27236256     1.17000
H105        H  0.16030590  0.30127957  0.34258392     0.33000
H106        H  0.13148817  0.30859444  0.20348017     0.43800
H107        H  0.14645198  0.18333313  0.26628710     0.37400
H108        H  0.26543262  0.25750498  0.24285255     0.33800
H109        H  0.15531177  0.38305296  0.24329736     0.25600
H110        H  0.25290126  0.27463156  0.14615233     0.31600
H111        H  0.27562400  0.20981266  0.20047388     0.37500
H112        H  0.08680901  0.35695499  0.32512436     0.31900
H113        H  0.09426806  0.26915317  0.36723048     0.30800
H114        H  0.18062987  0.18478104  0.36432400     0.32500
H115        H  0.20612413  0.13435046  0.26715348     0.31500
H116        H  0.07098735  0.32728519  0.23340853     0.35400
H117        H  0.05065074  0.26068937  0.22522262     0.28200
H118        H  0.27729161  0.30566823  0.35763398     0.32400
H119        H  0.28023858  0.20700713  0.29498869     0.35300
H120        H  0.06905903  0.25104602  0.33975908     0.27900
H121        H  0.05391850  0.23526066  0.19364160     0.40700
H122        H  0.19263764  0.36120235  0.18980673     0.30800
H123        H  0.12482163  0.36741427  0.21945817     0.38400
H124        H  0.20003017  0.15474362  0.30199804     0.30300
H125        H  0.25936381  0.31274705  0.15241248     0.30300
H126        H  0.29469270  0.27400856  0.33926198     0.30600
C127        C  0.11244987  0.03875529  0.13490191     0.79800
N128        N  0.08323865  0.03473518  0.11300941    -0.78500
C129        C  0.06259253  0.00669834  0.11366109     0.82200
N130        N  0.07172057  0.98187679  0.13697272    -0.78500
C131        C  0.10162459  0.98580639  0.15890799     0.82300
N132        N  0.12106194  0.01426801  0.15758499    -0.80200
Zr133      Zr  0.24155889  0.73271952  0.27323209     2.17500
O134        O  0.29795542  0.70773412  0.25008627    -0.51800
O135        O  0.23748619  0.70888729  0.33193946    -0.75000
O136        O  0.29317009  0.76308642  0.29375728    -0.81700
O137        O  0.19082304  0.66039260  0.23989332    -0.83500
O138        O  0.26780672  0.79971374  0.33033996    -0.79100
O139        O  0.24613458  0.67463712  0.26351334    -0.90800
O140        O  0.18225207  0.72023709  0.35678019    -0.76700
O141        O  0.21259659  0.77107180  0.31269569    -0.86200
O142        O  0.17952542  0.71573970  0.27895706    -0.85900
O143        O  0.25128182  0.78636360  0.24748648    -0.72700
O144        O  0.21887214  0.73076031  0.21428738    -0.84800
Zr145      Zr  0.13546366  0.80587818  0.23407711     2.26400
Zr146      Zr  0.22168275  0.82481472  0.28770025     2.06300
Zr147      Zr  0.15656569  0.71292486  0.22023022     2.10000
Zr148      Zr  0.15003912  0.75497641  0.31663305     1.78800
O149        O  0.16871805  0.68358324  0.16505063    -0.93600
O150        O  0.14994505  0.78028779  0.37524984    -0.41400
O151        O  0.12529794  0.75223838  0.25846748    -0.78000
O152        O  0.15833353  0.80899750  0.29300461    -0.96700
O153        O  0.19712612  0.82362677  0.22910131    -0.90000
O154        O  0.16436179  0.76702022  0.19490428    -0.92900
C155        C  0.21400507  0.70688328  0.35685041     1.00900
C156        C  0.22250282  0.65301914  0.25440486     1.13800
C157        C  0.29132406  0.77597648  0.32406408     1.04600
O158        O  0.20542693  0.85895711  0.33868298    -0.95000
O159        O  0.19305599  0.87565173  0.25998063    -0.90800
O160        O  0.13340578  0.86271592  0.25364119    -0.83900
C161        C  0.15960935  0.88330346  0.25095742     1.11200
O162        O  0.28374453  0.76245925  0.16943476    -0.97000
Zr163      Zr  0.22545627  0.78541389  0.18987573     1.88900
O164        O  0.13765631  0.83734858  0.18109738    -0.73600
O165        O  0.27565017  0.85977827  0.28220036    -0.52900
O166        O  0.26867198  0.83086480  0.18318548    -0.97600
O167        O  0.22413597  0.76249698  0.13021490    -0.54800
O168        O  0.19167115  0.82557933  0.15505533    -0.74200
C169        C  0.16065065  0.84086437  0.15635564     0.98200
O170        O  0.07350092  0.82028611  0.25311777    -0.63000
O171        O  0.10841982  0.67351763  0.23403979    -0.57800
O172        O  0.08934916  0.78518687  0.19574135    -0.94500
O173        O  0.10163829  0.73036348  0.18375171    -0.92900
O174        O  0.10953337  0.70839071  0.32786770    -0.93200
O175        O  0.08994909  0.77891852  0.32970979    -0.92000
C176        C  0.08298977  0.75788592  0.17953832     1.17000
H177        H  0.17777670  0.69442227  0.29042294     0.33000
H178        H  0.14485286  0.82527100  0.30683087     0.43800
H179        H  0.15390923  0.76787969  0.17150600     0.37400
H180        H  0.27673307  0.79216053  0.24447189     0.33800
H181        H  0.17613939  0.78154665  0.38213161     0.25600
H182        H  0.29011758  0.84945418  0.26294327     0.31600
H183        H  0.27008932  0.83433558  0.15746395     0.37500
H184        H  0.09669386  0.70437722  0.30524105     0.31900
H185        H  0.11653740  0.66310056  0.25631888     0.30800
H186        H  0.14574547  0.68578774  0.15123119     0.32500
H187        H  0.20265978  0.77291299  0.11852441     0.31500
H188        H  0.07309834  0.76848192  0.31241023     0.35400
H189        H  0.07635586  0.82968470  0.27715857     0.28200
H190        H  0.31591618  0.70645966  0.26960017     0.32400
H191        H  0.30186712  0.76885123  0.18771440     0.35300
H192        H  0.08710020  0.68758457  0.24077495     0.27900
H193        H  0.06606652  0.83948364  0.23844735     0.40700
H194        H  0.21638831  0.84708974  0.35895067     0.30800
H195        H  0.14256744  0.80379163  0.37156098     0.38400
H196        H  0.21703881  0.73894423  0.13322798     0.30300
H197        H  0.26630822  0.88091493  0.27220231     0.30300
H198        H  0.30800791  0.72470879  0.23413494     0.30600
Zr199      Zr  0.71998891  0.24371000  0.19842174     2.17500
O200        O  0.77341139  0.23480205  0.16095494    -0.51800
O201        O  0.71927078  0.18589069  0.17967426    -0.75000
O202        O  0.77832999  0.23695635  0.22514863    -0.81700
O203        O  0.65346172  0.25696127  0.12742160    -0.83500
O204        O  0.76514679  0.21101447  0.27536642    -0.79100
O205        O  0.71053273  0.26892685  0.14215568    -0.90800
O206        O  0.67703702  0.15921122  0.21194841    -0.76700
O207        O  0.70253904  0.21133413  0.24818874    -0.86200
O208        O  0.65647799  0.23083042  0.18997549    -0.85900
O209        O  0.73506702  0.28022560  0.24803020    -0.72700
O210        O  0.69021527  0.29686629  0.18799827    -0.84800
Zr211      Zr  0.61724558  0.28645538  0.27752003     2.26400
Zr212      Zr  0.71361322  0.24781834  0.29680046     2.06300
Zr213      Zr  0.62564723  0.28407989  0.18063275     2.10000
Zr214      Zr  0.63867205  0.20132169  0.24075868     1.78800
O215        O  0.63219315  0.32810251  0.13749665    -0.93600
O216        O  0.64576414  0.15876394  0.28565379    -0.41400
O217        O  0.61097587  0.25251047  0.22979287    -0.78000
O218        O  0.64871547  0.23573546  0.29245908    -0.96700
O219        O  0.67689622  0.27857866  0.25737457    -0.90000
O220        O  0.63651679  0.32099521  0.23049200    -0.92900
C221        C  0.70354792  0.15926002  0.18984616     1.00900
C222        C  0.68820696  0.25463832  0.12141928     1.13800
C223        C  0.78522534  0.21453063  0.24758600     1.04600
O224        O  0.71625913  0.20030801  0.33612314    -0.95000
O225        O  0.68919223  0.27765014  0.35036789    -0.90800
O226        O  0.63291772  0.29791969  0.33632907    -0.78700
C227        C  0.65894716  0.29332973  0.35799433     1.11200
O228        O  0.75796061  0.34754605  0.21411639    -0.97000
Zr229      Zr  0.70004747  0.33010442  0.23956314     1.88900
O230        O  0.61834626  0.34417253  0.29834110    -0.73600
O231        O  0.76086542  0.28198818  0.32432884    -0.52900
O232        O  0.72759877  0.34500274  0.29593866    -0.97600
O233        O  0.69569235  0.37176679  0.19358561    -0.54800
O234        O  0.66735744  0.37057366  0.27562047    -0.74200
C235        C  0.63801311  0.37005713  0.29393285     0.98200
O236        O  0.56644054  0.26397441  0.31124232    -0.63000
O237        O  0.57118068  0.26538191  0.14912238    -0.57800
O238        O  0.56078806  0.29196751  0.24589360    -0.94500
O239        O  0.57384454  0.32226989  0.19995324    -0.92900
O240        O  0.59964868  0.17110329  0.19947633    -0.93200
O241        O  0.58009456  0.18735007  0.26728951    -0.92000
C242        C  0.55617260  0.31872390  0.22903910     1.17000
H243        H  0.65303782  0.21555651  0.17050705     0.33000
H244        H  0.63929900  0.22577729  0.31355540     0.43800
H245        H  0.62454171  0.34245894  0.22913875     0.37400
H246        H  0.76044097  0.28655426  0.25056951     0.33800
H247        H  0.63296620  0.13903198  0.27591793     0.25600
H248        H  0.76612117  0.27090403  0.34699581     0.31600
H249        H  0.74383591  0.36401182  0.29094498     0.37500
H250        H  0.58819753  0.18859737  0.18476934     0.31900
H251        H  0.57092644  0.27866029  0.12726845     0.30800
H252        H  0.60979117  0.34200585  0.14012898     0.32500
H253        H  0.70191375  0.39303155  0.20550069     0.31500
H254        H  0.56139670  0.19920820  0.25304316     0.35400
H255        H  0.55551673  0.24651611  0.29604497     0.28200
H256        H  0.77930403  0.25686386  0.15115598     0.32400
H257        H  0.77300082  0.35529830  0.23428771     0.35300
H258        H  0.57735076  0.24246589  0.14116467     0.27900
H259        H  0.57813943  0.25156487  0.33076452     0.40700
H260        H  0.74157240  0.20046531  0.34569584     0.30800
H261        H  0.67209351  0.15253981  0.28501996     0.38400
H262        H  0.66911146  0.37368127  0.18841279     0.30300
H263        H  0.78315803  0.27777225  0.31013626     0.30300
H264        H  0.76499103  0.22127417  0.14062252     0.30600
Zr265      Zr  0.62803695  0.72892798  0.27520297     2.17500
O266        O  0.57495550  0.69225782  0.27429568    -0.51800
O267        O  0.62516217  0.71505648  0.33730778    -0.75000
O268        O  0.64213370  0.67360978  0.25542873    -0.81700
O269        O  0.57424144  0.80204482  0.30578405    -0.83500
O270        O  0.70158316  0.66746774  0.26730969    -0.79100
O271        O  0.56996192  0.75710541  0.27250520    -0.90800
O272        O  0.67146193  0.73915642  0.36743855    -0.76700
O273        O  0.69096603  0.72429978  0.29198060    -0.86200
O274        O  0.64181816  0.77796423  0.30842848    -0.85900
O275        O  0.66089165  0.72308913  0.22048150    -0.72700
O276        O  0.61291816  0.77470788  0.23750910    -0.84800
Zr277      Zr  0.72384650  0.81410042  0.23372200     2.26400
Zr278      Zr  0.72459496  0.71925825  0.23776102     2.06300
Zr279      Zr  0.62689689  0.82452930  0.27109623     2.10000
Zr280      Zr  0.70400533  0.77326516  0.32514055     1.78800
O281        O  0.57347644  0.84765693  0.24101081    -0.93600
O282        O  0.75151755  0.73910716  0.35249903    -0.41400
O283        O  0.69072647  0.82003814  0.28805364    -0.78000
O284        O  0.73926755  0.76823596  0.27217635    -0.96700
O285        O  0.71030762  0.76544614  0.20034794    -0.90000
O286        O  0.66089525  0.81893325  0.21673098    -0.92900
C287        C  0.64295509  0.72056808  0.36590708     1.00900
C288        C  0.55945167  0.77352062  0.29942952     1.13800
C289        C  0.66817858  0.65673769  0.26873266     1.04600
O290        O  0.78186036  0.69619852  0.26052303    -0.95000
O291        O  0.77476276  0.74348444  0.20041492    -0.90800
O292        O  0.78434921  0.79200737  0.22840240    -0.83900
C293        C  0.79295549  0.77089723  0.20470330     1.11200
O294        O  0.59727785  0.73706988  0.16033248    -0.97000
Zr295      Zr  0.64756065  0.76991010  0.18424535     1.88900
O296        O  0.72293464  0.83127100  0.17245169    -0.73600
O297        O  0.72582945  0.67758388  0.19072564    -0.52900
O298        O  0.66695977  0.73229437  0.13709551    -0.97600
O299        O  0.59871965  0.80423922  0.15922453    -0.54800
O300        O  0.67971340  0.80321323  0.14201976    -0.74200
C301        C  0.70640309  0.82356247  0.14360116     0.98200
O302        O  0.76969206  0.85778860  0.22823775    -0.63000
O303        O  0.62144866  0.86554585  0.31847990    -0.57800
O304        O  0.70880042  0.86393977  0.26531063    -0.94500
O305        O  0.65311393  0.87739665  0.24796981    -0.92900
O306        O  0.68627879  0.80897812  0.37455278    -0.93200
O307        O  0.75429377  0.80853163  0.34476624    -0.92000
C308        C  0.68763272  0.88393798  0.24940761     1.17000
H309        H  0.62836158  0.77891913  0.32942056     0.33000
H310        H  0.76466606  0.76744311  0.27959465     0.43800
H311        H  0.65684645  0.83764232  0.20140779     0.37400
H312        H  0.65419988  0.70393286  0.20636829     0.33800
H313        H  0.74603844  0.74010785  0.37800079     0.25600
H314        H  0.74642071  0.68421030  0.17547785     0.31600
H315        H  0.69406268  0.73149641  0.13893255     0.37500
H316        H  0.66061185  0.81576073  0.36965689     0.31900
H317        H  0.60780994  0.85411032  0.33724822     0.30800
H318        H  0.55449076  0.83025780  0.24269427     0.32500
H319        H  0.60869000  0.82708771  0.15862073     0.31500
H320        H  0.75642291  0.82564677  0.32629991     0.35400
H321        H  0.78442492  0.85215829  0.20713775     0.28200
H322        H  0.58203438  0.67186748  0.28712016     0.32400
H323        H  0.58439407  0.72865719  0.18129175     0.35300
H324        H  0.64668295  0.86765666  0.32796548     0.27900
H325        H  0.78664019  0.85480701  0.24841925     0.40700
H326        H  0.78541279  0.67508680  0.24723792     0.30800
H327        H  0.74563667  0.71598558  0.34534820     0.38400
H328        H  0.57965549  0.80523445  0.17769227     0.30300
H329        H  0.73449695  0.65687137  0.20213346     0.30300
H330        H  0.57197437  0.68503515  0.24945679     0.30600
C331        C  0.09519157  0.16733752  0.03342647     0.79800
N332        N  0.11788214  0.16636116  0.00586493    -0.78500
C333        C  0.11057051  0.14971243  0.97591455     0.82200
N334        N  0.07879905  0.13112421  0.97427522    -0.78500
C335        C  0.05503716  0.13020515  0.00288428     0.82300
N336        N  0.06342946  0.14911633  0.03228343    -0.80200
Zr337      Zr  0.15008489  0.24589702  0.80529061     2.17500
O338        O  0.12137418  0.23810321  0.86260482    -0.51800
O339        O  0.11753092  0.20388196  0.77288992    -0.75000
O340        O  0.09036254  0.26822869  0.80827705    -0.81700
O341        O  0.22790547  0.21702908  0.85680968    -0.83500
O342        O  0.07605824  0.26451731  0.75170506    -0.79100
O343        O  0.16877349  0.20341518  0.84436698    -0.90800
O344        O  0.15963534  0.17025459  0.74927878    -0.76700
O345        O  0.14585701  0.24455791  0.74567379    -0.86200
O346        O  0.20315531  0.21674216  0.78434092    -0.85900
O347        O  0.13976607  0.30307185  0.78878047    -0.72700
O348        O  0.19989403  0.27798993  0.82773384    -0.84800
Zr349      Zr  0.23448536  0.30197194  0.72315694     2.26400
Zr350      Zr  0.13098690  0.29674698  0.72602640     2.06300
Zr351      Zr  0.25331081  0.24951898  0.80507363     2.10000
Zr352      Zr  0.19329264  0.21429866  0.72236919     1.78800
O353        O  0.28986196  0.26830877  0.85521842    -0.93600
O354        O  0.14888743  0.19727626  0.67774323    -0.41400
O355        O  0.24497177  0.24580368  0.74183031    -0.78000
O356        O  0.18384213  0.26942551  0.70093740    -0.96700
O357        O  0.18235994  0.32369110  0.74716763    -0.90000
O358        O  0.24577261  0.30622998  0.78499359    -0.92900
C359        C  0.12978390  0.17492942  0.76587307     1.00900
C360        C  0.19721858  0.20183656  0.86373189     1.13800
C361        C  0.06823195  0.25895317  0.78473808     1.04600
O362        O  0.09561838  0.28275210  0.67341581    -0.95000
O363        O  0.15459483  0.33212034  0.67496232    -0.90800
O364        O  0.21317531  0.31507412  0.66617212    -0.83900
C365        C  0.18550458  0.33244934  0.65752947     1.11200
O366        O  0.16939480  0.33972848  0.86595181    -0.97000
Zr367      Zr  0.19230299  0.33355152  0.80605723     1.88900
O368        O  0.25376721  0.35786296  0.73813970    -0.73600
O369        O  0.08924932  0.34377216  0.73512695    -0.52900
O370        O  0.14697966  0.37664777  0.81966417    -0.97600
O371        O  0.24354422  0.35494862  0.84080796    -0.54800
O372        O  0.20907192  0.38071013  0.77156628    -0.74200
C373        C  0.23524863  0.38278094  0.74961450     0.98200
O374        O  0.28013784  0.32337338  0.68247021    -0.63000
O375        O  0.29237671  0.20009497  0.80265039    -0.57800
O376        O  0.28577053  0.26475390  0.72523225    -0.94500
O377        O  0.31042762  0.27208712  0.77712326    -0.92900
O378        O  0.23202741  0.16466073  0.71947144    -0.93200
O379        O  0.22954397  0.20973028  0.66884270    -0.92000
C380        C  0.31262554  0.27499038  0.74344641     1.17000
H381        H  0.20571143  0.19422149  0.79279600     0.33000
H382        H  0.18131903  0.26719167  0.67569897     0.43800
H383        H  0.26714683  0.31944559  0.79013754     0.37400
H384        H  0.11955524  0.31546194  0.79897895     0.33800
H385        H  0.14903123  0.21526688  0.66010126     0.25600
H386        H  0.10546296  0.36336150  0.73706590     0.31600
H387        H  0.13155575  0.37824980  0.79823497     0.37500
H388        H  0.25332637  0.16996294  0.73471806     0.31900
H389        H  0.30205395  0.19967882  0.77834357     0.30800
H390        H  0.27463498  0.26388593  0.87614194     0.32500
H391        H  0.24822795  0.33764519  0.85874316     0.31500
H392        H  0.24376179  0.23062136  0.66812174     0.35400
H393        H  0.27839844  0.31028830  0.66029350     0.28200
H394        H  0.09884892  0.22508576  0.85848701     0.32400
H395        H  0.16641669  0.31676221  0.87460258     0.35300
H396        H  0.31381792  0.20582763  0.81754839     0.27900
H397        H  0.27349718  0.34645638  0.67620088     0.40700
H398        H  0.07498150  0.29894160  0.67307511     0.30800
H399        H  0.16061363  0.17801691  0.66565816     0.38400
H400        H  0.23320079  0.37406332  0.85423262     0.30300
H401        H  0.07641965  0.34662842  0.71231332     0.30300
H402        H  0.11278214  0.26039668  0.87054304     0.30600
Zr403      Zr  0.14228122  0.80686684  0.78615966     2.17500
O404        O  0.09873277  0.82240279  0.83228962    -0.51800
O405        O  0.12628340  0.86489041  0.78107913    -0.75000
O406        O  0.16802964  0.81258162  0.84352477    -0.81700
O407        O  0.06744046  0.78799808  0.72213686    -0.83500
O408        O  0.22549224  0.83075396  0.83354595    -0.79100
O409        O  0.08568530  0.77790135  0.77628396    -0.90800
O410        O  0.16243077  0.89035300  0.74130066    -0.76700
O411        O  0.19626403  0.83478087  0.76820320    -0.86200
O412        O  0.13401577  0.81854925  0.72518884    -0.85900
O413        O  0.19169768  0.76924952  0.80135952    -0.72700
O414        O  0.13071625  0.75385235  0.75910789    -0.84800
Zr415      Zr  0.22863006  0.75590997  0.69279092     2.26400
Zr416      Zr  0.24565361  0.79739555  0.78170957     2.06300
Zr417      Zr  0.12413768  0.76529264  0.69696156     2.10000
Zr418      Zr  0.18843175  0.84527523  0.70706784     1.78800
O419        O  0.07436122  0.72545544  0.69174365    -0.93600
O420        O  0.23505172  0.88837660  0.70688859    -0.41400
O421        O  0.17905434  0.79282728  0.67836609    -0.78000
O422        O  0.23897128  0.80937105  0.72013893    -0.96700
O423        O  0.23534998  0.74434138  0.75405817    -0.90000
O424        O  0.17425066  0.72869935  0.71167157    -0.92900
C425        C  0.13870639  0.89075477  0.76595157     1.00900
C426        C  0.06211649  0.79039637  0.75532233     1.13800
C427        C  0.19602288  0.82947420  0.85213386     1.04600
O428        O  0.29027173  0.84125974  0.77271329    -0.95000
O429        O  0.29725066  0.76161539  0.76173376    -0.90800
O430        O  0.29136080  0.76943702  0.70432189    -0.83900
C431        C  0.30807133  0.75615203  0.72998243     1.11200
O432        O  0.15101889  0.70410472  0.82749065    -0.97000
Zr433      Zr  0.18102244  0.71731451  0.77214851     1.88900
O434        O  0.24318255  0.69681270  0.69607914    -0.73600
O435        O  0.28102337  0.78415910  0.83436327    -0.52900
O436        O  0.22239789  0.68926528  0.81298136    -0.97600
O437        O  0.13263032  0.67691272  0.76120499    -0.54800
O438        O  0.21009362  0.67265634  0.73944541    -0.74200
C439        C  0.23133987  0.67150056  0.71275401     0.98200
O440        O  0.26487438  0.76213176  0.63924138    -0.63000
O441        O  0.10534719  0.79452935  0.64393129    -0.57800
O442        O  0.19199227  0.75186736  0.63975141    -0.94500
O443        O  0.14012553  0.72568891  0.64952517    -0.92900
O444        O  0.14218478  0.87021795  0.66881924    -0.93200
O445        O  0.21796667  0.85466172  0.65066034    -0.92000
C446        C  0.17123708  0.72699111  0.63408472     1.17000
H447        H  0.11345181  0.83349916  0.72152833     0.33000
H448        H  0.26055383  0.82031474  0.71139275     0.43800
H449        H  0.17100129  0.70754733  0.70021852     0.37400
H450        H  0.19429699  0.76373150  0.82592748     0.33800
H451        H  0.22210715  0.90861029  0.69850263     0.25600
H452        H  0.28236133  0.75951505  0.83458938     0.31600
H453        H  0.22837140  0.70637244  0.83102211     0.37500
H454        H  0.15132854  0.89292026  0.66423874     0.31900
H455        H  0.08596221  0.78044981  0.63335318     0.30800
H456        H  0.05813493  0.73460521  0.67315828     0.32500
H457        H  0.10996023  0.68744098  0.77049876     0.31500
H458        H  0.20147913  0.84438700  0.63292778     0.35400
H459        H  0.27400415  0.78529962  0.63997308     0.28200
H460        H  0.10796938  0.84286410  0.84398049     0.32400
H461        H  0.14175004  0.72573336  0.83667626     0.35300
H462        H  0.09220659  0.81463846  0.65260106     0.27900
H463        H  0.28697225  0.74793159  0.64190279     0.40700
H464        H  0.28359406  0.85871796  0.79017824     0.30800
H465        H  0.24027438  0.89293805  0.73205588     0.38400
H466        H  0.13797565  0.65830948  0.77743030     0.30300
H467        H  0.30631929  0.79126727  0.82898561     0.30300
H468        H  0.10036699  0.80479576  0.85033684     0.30600
Zr469      Zr  0.73013967  0.23137941  0.79533994     2.17500
O470        O  0.77373825  0.22144306  0.84320338    -0.51800
O471        O  0.75497525  0.17554222  0.78397098    -0.75000
O472        O  0.70265069  0.21305175  0.84831099    -0.81700
O473        O  0.80556487  0.27203826  0.74739589    -0.83500
O474        O  0.65115947  0.18778721  0.82934867    -0.79100
O475        O  0.77523913  0.27415506  0.79667403    -0.90800
O476        O  0.73236685  0.15418246  0.73277766    -0.76700
O477        O  0.68483046  0.20639933  0.76392554    -0.86200
O478        O  0.74799818  0.23123422  0.73469727    -0.85900
O479        O  0.67313827  0.25810526  0.81210903    -0.72700
O480        O  0.73268363  0.28883833  0.77888209    -0.84800
Zr481      Zr  0.64599879  0.28208573  0.70492726     2.26400
Zr482      Zr  0.62794765  0.22577902  0.78129687     2.06300
Zr483      Zr  0.74835035  0.28928894  0.71688555     2.10000
Zr484      Zr  0.70136196  0.20032198  0.70593630     1.78800
O485        O  0.77840634  0.34224123  0.72851258    -0.93600
O486        O  0.66840339  0.14892893  0.69312317    -0.41400
O487        O  0.70254726  0.25691756  0.68696463    -0.78000
O488        O  0.64320521  0.22391861  0.71970853    -0.96700
O489        O  0.62891496  0.28324042  0.76523943    -0.90000
O490        O  0.69176912  0.31487984  0.73292890    -0.92900
C491        C  0.74959036  0.15156429  0.76188651     1.00900
C492        C  0.80464988  0.26727809  0.78067987     1.13800
C493        C  0.67901347  0.19019318  0.85066545     1.04600
O494        O  0.59221068  0.17710754  0.76448769    -0.95000
O495        O  0.57290846  0.25676915  0.75657359    -0.90800
O496        O  0.58891822  0.25536541  0.70037318    -0.83900
C497        C  0.56580747  0.26262230  0.72372420     1.11200
O498        O  0.69705403  0.32118261  0.85371032    -0.97000
Zr499      Zr  0.67542082  0.31488082  0.79327922     1.88900
O500        O  0.60907660  0.32956877  0.72130742    -0.73600
O501        O  0.58593928  0.23104894  0.83074760    -0.52900
O502        O  0.62354129  0.32953795  0.83066044    -0.97600
O503        O  0.71300842  0.36419290  0.80211159    -0.54800
O504        O  0.64200396  0.35780362  0.76187070    -0.74200
C505        C  0.61796017  0.35650479  0.73727460     0.98200
O506        O  0.62472067  0.27992930  0.64414550    -0.63000
O507        O  0.79128819  0.27710598  0.66951321    -0.57800
O508        O  0.66335799  0.32566598  0.66769627    -0.94500
O509        O  0.72568344  0.32244438  0.66449136    -0.92900
O510        O  0.75408434  0.19237410  0.66748129    -0.93200
O511        O  0.67376601  0.19700110  0.64743318    -0.92000
C512        C  0.69371587  0.33323825  0.65376578     1.17000
H513        H  0.77140691  0.22036745  0.73119486     0.33000
H514        H  0.62581665  0.21047052  0.70680084     0.43800
H515        H  0.69209612  0.33765799  0.72492162     0.37400
H516        H  0.66766534  0.25910105  0.83692852     0.33800
H517        H  0.68718419  0.13290615  0.68445517     0.25600
H518        H  0.57801710  0.20800258  0.83554550     0.31600
H519        H  0.60155730  0.32357664  0.81662543     0.37500
H520        H  0.75425993  0.21248105  0.65257822     0.31900
H521        H  0.81062154  0.29412219  0.67227273     0.30800
H522        H  0.75899634  0.35927308  0.72481724     0.32500
H523        H  0.69780483  0.37938112  0.81678234     0.31500
H524        H  0.69066580  0.18288409  0.63329781     0.35400
H525        H  0.62078484  0.25601213  0.63887319     0.28200
H526        H  0.77314244  0.19754448  0.84900940     0.32400
H527        H  0.71797506  0.30538912  0.85558043     0.35300
H528        H  0.80339386  0.25594421  0.67637489     0.27900
H529        H  0.59987208  0.29010365  0.64426436     0.40700
H530        H  0.56830695  0.18634004  0.75657975     0.30800
H531        H  0.66104353  0.14036517  0.71636992     0.38400
H532        H  0.71369664  0.37496645  0.77879012     0.30300
H533        H  0.60158600  0.23720310  0.85111484     0.30300
H534        H  0.76436348  0.23339084  0.86428721     0.30600
Zr535      Zr  0.70346550  0.79297355  0.81159730     2.17500
O536        O  0.70339183  0.80347210  0.87490509    -0.51800
O537        O  0.74769012  0.83420329  0.79680680    -0.75000
O538        O  0.76138861  0.77823631  0.83531288    -0.81700
O539        O  0.65351621  0.86059927  0.77514579    -0.83500
O540        O  0.75811034  0.72231573  0.84124533    -0.79100
O541        O  0.66922633  0.84125495  0.82808133    -0.90800
O542        O  0.77125976  0.82147856  0.74343254    -0.76700
O543        O  0.74124953  0.75734954  0.77702481    -0.86200
O544        O  0.69505182  0.81244464  0.75295540    -0.85900
O545        O  0.68443340  0.73765964  0.82525972    -0.72700
O546        O  0.63887665  0.79002380  0.80179060    -0.84800
Zr547      Zr  0.64791849  0.71706050  0.71875719     2.26400
Zr548      Zr  0.72120995  0.70189517  0.78824052     2.06300
Zr549      Zr  0.63057251  0.80868262  0.74248047     2.10000
Zr550      Zr  0.73286364  0.77694066  0.71886650     1.78800
O551        O  0.57209177  0.83149102  0.76241187    -0.93600
O552        O  0.79627658  0.75739309  0.71627716    -0.41400
O553        O  0.66822707  0.77247670  0.70634621    -0.78000
O554        O  0.71348274  0.72080849  0.72841128    -0.96700
O555        O  0.65644673  0.69783715  0.77731530    -0.90000
O556        O  0.61022544  0.75275777  0.75422195    -0.92900
C557        C  0.77073320  0.83881883  0.77205965     1.00900
C558        C  0.66701263  0.86517081  0.80671250     1.13800
C559        C  0.77054382  0.75148952  0.85065196     1.04600
O560        O  0.78034610  0.68095824  0.76792606    -0.95000
O561        O  0.69822573  0.64993151  0.75703091    -0.90800
O562        O  0.68394236  0.66925572  0.70392497    -0.83900
C563        C  0.68709842  0.64503341  0.72484270     1.11200
O564        O  0.61716837  0.75641933  0.87281726    -0.97000
Zr565      Zr  0.62020964  0.73409994  0.81300053     1.88900
O566        O  0.59656209  0.68181396  0.73517751    -0.73600
O567        O  0.72420611  0.65631832  0.83003121    -0.52900
O568        O  0.62341026  0.68815281  0.85433499    -0.97600
O569        O  0.56037623  0.75732425  0.82814964    -0.54800
O570        O  0.57827838  0.69222863  0.79093581    -0.74200
C571        C  0.57541791  0.67668283  0.76150294     0.98200
O572        O  0.62887159  0.69021426  0.66360971    -0.63000
O573        O  0.63067003  0.85203671  0.69805126    -0.57800
O574        O  0.62041938  0.74449355  0.66977154    -0.94500
O575        O  0.58980840  0.78871234  0.69274671    -0.92900
O576        O  0.72969437  0.81871959  0.67288015    -0.93200
O577        O  0.74709001  0.75531788  0.66035463    -0.92000
C578        C  0.59361449  0.76493101  0.66955880     1.17000
H579        H  0.70303048  0.83486701  0.74860208     0.33000
H580        H  0.72860459  0.70742010  0.71284652     0.43800
H581        H  0.58499597  0.75052223  0.74837208     0.37400
H582        H  0.68879153  0.73287322  0.84977239     0.33800
H583        H  0.80657614  0.76209448  0.73995876     0.25600
H584        H  0.75039914  0.65464135  0.83685861     0.31600
H585        H  0.60052403  0.69002986  0.86817338     0.37500
H586        H  0.70436620  0.82771395  0.67418324     0.31900
H587        H  0.63454495  0.84005241  0.67545839     0.30800
H588        H  0.56502712  0.81713054  0.78225214     0.32500
H589        H  0.54757592  0.73913807  0.84037164     0.31500
H590        H  0.72330934  0.74736401  0.65096650     0.35400
H591        H  0.65121287  0.68754583  0.64905064     0.28200
H592        H  0.72646444  0.81547615  0.88004281     0.32400
H593        H  0.62147172  0.78062398  0.87043279     0.35300
H594        H  0.60492047  0.86001956  0.69692921     0.27900
H595        H  0.62159386  0.66727642  0.66968633     0.40700
H596        H  0.79777343  0.69891542  0.77404517     0.30800
H597        H  0.79455196  0.73280374  0.71512415     0.38400
H598        H  0.54735486  0.75979677  0.80541487     0.30300
H599        H  0.71170558  0.66506722  0.85131227     0.30300
H600        H  0.70660648  0.78144034  0.88602231     0.30600
C601        C  0.45517595  0.61765607  0.70177683     0.79800
N602        N  0.43026629  0.64209548  0.70668836    -0.78500
C603        C  0.40467248  0.64979328  0.68249497     0.82200
N604        N  0.40347788  0.63206951  0.65157427    -0.78500
C605        C  0.42814981  0.60659127  0.64594846     0.82300
N606        N  0.45424843  0.59997176  0.67098183    -0.80200
C607        C  0.27321518  0.49066733  0.66349329     0.79800
N608        N  0.26103653  0.52177246  0.66992000    -0.78500
C609        C  0.27426567  0.54753127  0.65175523     0.82200
N610        N  0.29991972  0.54231106  0.62661394    -0.78500
C611        C  0.31250475  0.51096546  0.62006880     0.82300
N612        N  0.29990976  0.48508409  0.63921535    -0.80200
C613        C  0.46939035  0.35128682  0.65175797     0.79800
N614        N  0.46971212  0.37429494  0.62504943    -0.78500
C615        C  0.43711195  0.38824341  0.61313483     0.82200
N616        N  0.40470049  0.37845931  0.62908204    -0.78500
C617        C  0.40551296  0.35483674  0.65538848     0.82300
N618        N  0.43762370  0.34224740  0.66571972    -0.80200
C619        C  0.58066381  0.47994773  0.67227634     0.79800
N620        N  0.55602439  0.48552766  0.64640545    -0.78500
C621        C  0.55719318  0.51332986  0.62677264     0.82200
N622        N  0.58300793  0.53716558  0.63451337    -0.78500
C623        C  0.60716367  0.53258253  0.66216064     0.82300
N624        N  0.60572284  0.50360536  0.68026493    -0.80200
C625        C  0.46393474  0.40635013  0.31337248     0.79800
N626        N  0.46551497  0.42046163  0.34654006    -0.78500
C627        C  0.43383228  0.42744232  0.36505868     0.82200
N628        N  0.40056368  0.41903014  0.34985869    -0.78500
C629        C  0.39920456  0.40531538  0.31646448     0.82300
N630        N  0.43087118  0.39961521  0.29922641    -0.80200
C631        C  0.59109474  0.49527189  0.35445655     0.79800
N632        N  0.56611362  0.49981119  0.38034966    -0.78500
C633        C  0.55733042  0.53090266  0.39209943     0.82200
N634        N  0.57362922  0.55804841  0.37709745    -0.78500
C635        C  0.59922970  0.55323169  0.35103072     0.82300
N636        N  0.60736420  0.52193618  0.34002860    -0.80200
C637        C  0.45991190  0.69569217  0.38614420     0.79800
N638        N  0.46172529  0.66443235  0.40102031    -0.78500
C639        C  0.43110609  0.65138713  0.41706730     0.82200
N640        N  0.39917149  0.66970835  0.41674756    -0.78500
C641        C  0.39764139  0.70042390  0.40144743     0.82300
N642        N  0.42807415  0.71284780  0.38689334    -0.80200
C643        C  0.26369615  0.48980561  0.36632148     0.79800
N644        N  0.29163336  0.49551250  0.38886759    -0.78500
C645        C  0.31101527  0.52408658  0.38829016     0.82200
N646        N  0.30111506  0.54858472  0.36469285    -0.78500
C647        C  0.27133984  0.54373157  0.34251634     0.82300
N648        N  0.25360168  0.51407639  0.34347149    -0.80200
C649        C  0.58142494  0.67517232  0.49791282     0.79800
N650        N  0.57554510  0.69927898  0.52268117    -0.78500
C651        C  0.55136534  0.69489840  0.54934619     0.82200
N652        N  0.53268355  0.66535997  0.55075589    -0.78500
C653        C  0.53875769  0.64054313  0.52633879     0.82300
N654        N  0.56295515  0.64590463  0.50002193    -0.80200
C655        C  0.60891603  0.37454504  0.47508161     0.79800
N656        N  0.62845339  0.37174569  0.50493057    -0.78500
C657        C  0.61865991  0.38727886  0.53501362     0.82200
N658        N  0.58892919  0.40858019  0.53477001    -0.78500
C659        C  0.56896573  0.41305656  0.50417588     0.82300
N660        N  0.57867905  0.39508505  0.47461420    -0.80200
C661        C  0.25548822  0.63936827  0.48206524     0.79800
N662        N  0.23481928  0.64631709  0.51057570    -0.78500
C663        C  0.24516273  0.63559660  0.54278840     0.82200
N664        N  0.27667818  0.61734476  0.54623115    -0.78500
C665        C  0.29764952  0.61070773  0.51741613     0.82300
N666        N  0.28700747  0.62181809  0.48545536    -0.80200
C667        C  0.27621305  0.35539604  0.47696818     0.79800
N668        N  0.30543498  0.37671547  0.47429296    -0.78500
C669        C  0.31456453  0.39723039  0.50224529     0.82200
N670        N  0.29331298  0.39624791  0.53221405    -0.78500
C671        C  0.26462740  0.37440694  0.53515063     0.82300
N672        N  0.25713318  0.35446399  0.50726495    -0.80200
O673        O  0.83924882  0.94614717  0.99252939    -0.86900
O674        O  0.04458194  0.97131665  0.99080385    -0.87100
O675        O  0.94708932  0.92710916  0.92658890    -0.88700
O676        O  0.94381312  0.90645605  0.03882132    -0.87500
O677        O  0.93779714  0.93826051  0.08911875    -0.87100
O678        O  0.93494837  0.97345213  0.89314751    -0.88500
O679        O  0.00738875  0.92559958  0.98565882    -0.86900
O680        O  0.88752231  0.91106847  0.97913226    -0.86500
Zr681      Zr  0.94259982  0.94493073  0.98839830     2.84300
O682        O  0.97649443  0.97634062  0.02959569    -1.08500
O683        O  0.89959859  0.98067487  0.96061451    -1.09200
C684        C  0.85301252  0.91699747  0.98407345     1.06200
C685        C  0.03916404  0.93993210  0.98721595     1.06100
C686        C  0.94180509  0.94195014  0.89690777     1.09100
C687        C  0.94056585  0.90948077  0.07267091     1.06900
H688        H  0.98835070  0.97815666  0.94189496     0.32500
O689        O  0.97201517  0.98820168  0.95894555    -1.29500
H690        H  0.88857088  0.95233478  0.04170833     0.32100
O691        O  0.90209830  0.96953898  0.02996893    -1.31100
O692        O  0.03558846  0.07394753  0.99964643    -0.86900
O693        O  0.82358828  0.05840275  0.00475568    -0.88400
O694        O  0.98645717  0.03051545  0.90054377    -0.87000
O695        O  0.99888965  0.99655500  0.09903168    -0.87000
O696        O  0.87578045  0.99349168  0.10168574    -0.86700
O697        O  0.86790578  0.01733991  0.90262675    -0.86600
O698        O  0.92740786  0.11656899  0.95691087    -0.86900
O699        O  0.92932542  0.09621416  0.07915952    -0.86400
O700        O  0.92721358  0.08154603  0.90855512    -0.87400
O701        O  0.93665684  0.04855770  0.11228824    -0.86600
O702        O  0.03328359  0.02618278  0.94104728    -0.87000
O703        O  0.82639316  0.00177668  0.94440321    -0.86700
O704        O  0.83060592  0.99691718  0.05934587    -0.86400
O705        O  0.03852043  0.01429834  0.05638585    -0.86800
O706        O  0.98988239  0.11219583  0.01091839    -0.87100
O707        O  0.86228107  0.10282977  0.01491830    -0.88400
Zr708      Zr  0.00630053  0.01957343  0.99955907     2.83100
Zr709      Zr  0.85957393  0.00519680  0.00151831     2.83500
Zr710      Zr  0.92905851  0.02346102  0.93069317     2.84100
Zr711      Zr  0.93652835  0.99940708  0.07216538     2.83400
Zr712      Zr  0.92770004  0.08178302  0.01332253     2.84200
O713        O  0.89676629  0.03639357  0.04113031    -1.09000
O714        O  0.96433862  0.05471901  0.97116173    -1.08500
C715        C  0.02442497  0.10419780  0.00439768     1.06200
C716        C  0.82972278  0.09007906  0.00973749     1.08800
C717        C  0.02049198  0.02968883  0.90949487     1.06300
C718        C  0.03127810  0.00477624  0.08810577     1.06700
C719        C  0.84154169  0.99379041  0.09169719     1.06300
C720        C  0.83547760  0.00779924  0.91212913     1.05800
C721        C  0.92771093  0.11119361  0.92264179     1.06300
C722        C  0.93337393  0.08070123  0.10938858     1.05800
H723        H  0.87466808  0.06293866  0.96059736     0.32500
O724        O  0.89161021  0.04879304  0.97327464    -1.30100
H725        H  0.98258886  0.05562356  0.05866248     0.32500
O726        O  0.96747422  0.04339193  0.04216420    -1.31500
O727        O  0.42223641  0.60051291  0.58331504    -0.86900
O728        O  0.43938317  0.41205602  0.55264069    -0.87100
O729        O  0.37443092  0.50335020  0.60515728    -0.88700
O730        O  0.49621027  0.50751334  0.60625804    -0.87500
O731        O  0.54004806  0.52316164  0.56661953    -0.87100
O732        O  0.33085331  0.50797074  0.56144142    -0.88500
O733        O  0.43616791  0.44702382  0.60093667    -0.86900
O734        O  0.43250377  0.55403394  0.61694446    -0.86500
Zr735      Zr  0.43505709  0.50456263  0.57808009     2.84300
O736        O  0.47410318  0.47954839  0.53631607    -1.08500
O737        O  0.39400638  0.53957904  0.54769995    -1.09200
C738        C  0.42714547  0.58578301  0.61323569     1.06200
C739        C  0.43753865  0.41742365  0.58693187     1.06100
C740        C  0.34108442  0.50622168  0.59387993     1.09100
C741        C  0.52942256  0.51584777  0.59805180     1.06900
H742        H  0.38632170  0.45776454  0.54862740     0.32500
O743        O  0.40080288  0.47381023  0.53614720    -1.29500
H744        H  0.48090783  0.55965812  0.56661399     0.32100
O745        O  0.46727553  0.54672805  0.54955270    -1.31100
O746        O  0.43758052  0.43144991  0.43009939    -0.86900
O747        O  0.42704367  0.62139837  0.47087382    -0.88400
O748        O  0.33233863  0.45429063  0.50231257    -0.87000
O749        O  0.54327313  0.46848827  0.50835177    -0.87000
O750        O  0.52943584  0.58148502  0.51630657    -0.86700
O751        O  0.32360702  0.55826944  0.51282547    -0.86600
O752        O  0.37425608  0.53377982  0.40554482    -0.86900
O753        O  0.49496544  0.53460888  0.40899909    -0.86400
O754        O  0.33239173  0.51682381  0.44644871    -0.87400
O755        O  0.53917304  0.52980078  0.45210428    -0.86600
O756        O  0.37867469  0.41574369  0.49511540    -0.87000
O757        O  0.36173224  0.60266093  0.52327337    -0.86700
O758        O  0.48051439  0.61589571  0.52942916    -0.86400
O759        O  0.50414905  0.42480645  0.49653224    -0.86800
O760        O  0.43454905  0.47936799  0.39690107    -0.87100
O761        O  0.43558219  0.59024374  0.42047272    -0.88400
Zr762      Zr  0.43960027  0.44660499  0.49565636     2.83100
Zr763      Zr  0.42575928  0.58270964  0.52086822     2.83500
Zr764      Zr  0.36123162  0.50936465  0.50475741     2.84100
Zr765      Zr  0.50827630  0.52227114  0.50914152     2.83400
Zr766      Zr  0.43434353  0.52897733  0.43646842     2.84200
O767        O  0.46704179  0.55835447  0.48013298    -1.09000
O768        O  0.40197498  0.48517135  0.46455407    -1.08500
C769        C  0.43544472  0.44710725  0.39982591     1.06200
C770        C  0.43194035  0.61877060  0.43719515     1.08800
C771        C  0.34396724  0.42387047  0.49915313     1.06300
C772        C  0.53662269  0.43697829  0.50300585     1.06700
C773        C  0.51499085  0.61044468  0.52449545     1.06300
C774        C  0.32981676  0.58919375  0.51910117     1.05800
C775        C  0.34117871  0.52641774  0.41508659     1.06300
C776        C  0.52874228  0.53344271  0.41967048     1.05800
H777        H  0.37675948  0.56754330  0.46535245     0.32500
O778        O  0.39338509  0.55262478  0.47742091    -1.30100
H779        H  0.48939373  0.48054063  0.45151703     0.32500
O780        O  0.47276550  0.49096305  0.46807246    -1.31500
C781        C  0.57328830  0.77086384  0.60734631    -0.06200
C782        C  0.56640450  0.75792980  0.64085921    -0.00300
C783        C  0.54425922  0.72892961  0.64259207    -0.08800
C784        C  0.53666304  0.71044360  0.61168538    -0.06200
C785        C  0.54853609  0.72077424  0.57850694    -0.00300
C786        C  0.56230564  0.75394380  0.57614053    -0.08800
C787        C  0.56465782  0.77331841  0.54215543     0.61600
H788        H  0.58871819  0.79374561  0.60538831     0.12300
H789        H  0.52326890  0.68656304  0.61407913     0.12300
C790        C  0.52948166  0.71520608  0.67653559     0.61900
F791        F  0.54738187  0.80388855  0.54670958    -0.23300
F792        F  0.54756041  0.75756031  0.51413942    -0.20600
F793        F  0.60096495  0.77879428  0.53404585    -0.20300
F794        F  0.53861133  0.73448200  0.70543853    -0.20400
F795        F  0.54291040  0.68326366  0.68117004    -0.20700
F796        F  0.49163404  0.71398401  0.67445163    -0.23400
C797        C  0.67062421  0.60889904  0.67287141    -0.06200
C798        C  0.67391351  0.61189314  0.71004739    -0.00300
C799        C  0.65833061  0.58637025  0.73059876    -0.08800
C800        C  0.63866545  0.56045461  0.71349046    -0.06200
C801        C  0.63197570  0.55966650  0.67668265    -0.00300
C802        C  0.64933014  0.58398944  0.65594971    -0.08800
C803        C  0.64523054  0.58409466  0.61616507     0.61600
H804        H  0.68318922  0.62774120  0.65682052     0.12300
H805        H  0.62624717  0.54145658  0.72942684     0.12300
C806        C  0.66015808  0.58736900  0.77049968     0.61900
F807        F  0.66856891  0.60661210  0.60064678    -0.23300
F808        F  0.60967941  0.59292630  0.60719198    -0.20600
F809        F  0.65329949  0.55279473  0.60254501    -0.20300
F810        F  0.64080042  0.61482861  0.78288261    -0.20400
F811        F  0.69629800  0.58920984  0.78154071    -0.20700
F812        F  0.64517435  0.55921228  0.78528650    -0.23400
C813        C  0.55100303  0.62614377  0.73116286    -0.06200
C814        C  0.54552918  0.65174645  0.75635260    -0.00300
C815        C  0.51069659  0.65400183  0.77312489    -0.08800
C816        C  0.48150178  0.63554024  0.75877030    -0.06200
C817        C  0.48582729  0.61621075  0.72795434    -0.00300
C818        C  0.52158688  0.60699426  0.71830799    -0.08800
C819        C  0.52958628  0.57700988  0.69558612     0.61600
H820        H  0.57826105  0.62152289  0.72078914     0.12300
H821        H  0.45399408  0.63966279  0.76862745     0.12300
C822        C  0.50287535  0.67750317  0.80376287     0.61900
F823        F  0.55764623  0.55906487  0.71100370    -0.23300
F824        F  0.53977837  0.58735782  0.66249289    -0.20600
F825        F  0.49995782  0.55582239  0.69291449    -0.20300
F826        F  0.50747673  0.70999481  0.79315669    -0.20400
F827        F  0.52625153  0.67037284  0.83151792    -0.20700
F828        F  0.46729797  0.67461584  0.81596175    -0.23400
C829        C  0.67356700  0.33006462  0.59393789    -0.06200
C830        C  0.68743616  0.35118510  0.62029515    -0.00300
C831        C  0.67698396  0.38548230  0.61958203    -0.08800
C832        C  0.65466945  0.39741572  0.59146262    -0.06200
C833        C  0.63822944  0.37529955  0.56730840    -0.00300
C834        C  0.64617822  0.34066533  0.57044622    -0.08800
C835        C  0.62418656  0.31398230  0.55110305     0.61600
H836        H  0.67976963  0.30361502  0.59547214     0.12300
H837        H  0.64950310  0.42383390  0.58856655     0.12300
C838        C  0.68910566  0.40910986  0.64864321     0.61900
F839        F  0.62128224  0.28562905  0.57129876    -0.23300
F840        F  0.64138007  0.30536161  0.51994087    -0.20600
F841        F  0.58879463  0.32490710  0.54413947    -0.20300
F842        F  0.72697550  0.41039665  0.64941642    -0.20400
F843        F  0.67672578  0.39818068  0.68084070    -0.20700
F844        F  0.67550558  0.44105203  0.64361341    -0.23400
C845        C  0.52848045  0.31499021  0.72360564    -0.06200
C846        C  0.53426239  0.28266347  0.71020358    -0.00300
C847        C  0.52002870  0.27498354  0.67627336    -0.08800
C848        C  0.50605307  0.30066827  0.65487505    -0.06200
C849        C  0.50113940  0.33341246  0.66752158    -0.00300
C850        C  0.51115031  0.34013174  0.70329281    -0.08800
C851        C  0.49968005  0.37206895  0.72211405     0.61600
H852        H  0.53853715  0.32094415  0.74978977     0.12300
H853        H  0.49482265  0.29410852  0.62925172     0.12300
C854        C  0.51765075  0.23949778  0.66222420     0.61900
F855        F  0.52674715  0.38235393  0.74520930    -0.23300
F856        F  0.46823090  0.36620733  0.74120239    -0.20600
F857        F  0.49294642  0.39775561  0.69887715    -0.20300
F858        F  0.52964226  0.21606368  0.68627766    -0.20400
F859        F  0.53835393  0.23631724  0.63197167    -0.20700
F860        F  0.48144871  0.23246599  0.65423947    -0.23400
C861        C  0.58966677  0.38769104  0.68864995    -0.06200
C862        C  0.60168738  0.38782738  0.72389818    -0.00300
C863        C  0.59998467  0.41789240  0.74374236    -0.08800
C864        C  0.59118364  0.44749600  0.72612624    -0.06200
C865        C  0.58218578  0.44755497  0.69017552    -0.00300
C866        C  0.57887090  0.41689997  0.67156925    -0.08800
C867        C  0.56488658  0.41461411  0.63378504     0.61600
H868        H  0.58983159  0.36446943  0.67394088     0.12300
H869        H  0.59226281  0.47108049  0.74020908     0.12300
C870        C  0.60712388  0.41911847  0.78312261     0.61900
F871        F  0.56615691  0.38233569  0.62061022    -0.23300
F872        F  0.58582351  0.43415321  0.61205562    -0.20600
F873        F  0.52874912  0.42528396  0.63246982    -0.20300
F874        F  0.64440831  0.41738667  0.78964842    -0.20400
F875        F  0.58977621  0.39288605  0.79934373    -0.20700
F876        F  0.59375775  0.44834198  0.79808772    -0.23400
C877        C  0.18697303  0.65332200  0.57055429    -0.06200
C878        C  0.22545472  0.65004285  0.57323720    -0.00300
C879        C  0.24438068  0.66854044  0.59919627    -0.08800
C880        C  0.22466320  0.69240961  0.61842644    -0.06200
C881        C  0.18692048  0.69815188  0.61393277    -0.00300
C882        C  0.16712513  0.67700713  0.59079923    -0.08800
C883        C  0.12603077  0.68064163  0.58580165     0.61600
H884        H  0.17293096  0.63866174  0.55064786     0.12300
H885        H  0.23933564  0.70807596  0.63628923     0.12300
C886        C  0.28567465  0.66570748  0.60468044     0.61900
F887        F  0.11285838  0.65898307  0.56020612    -0.23300
F888        F  0.11755590  0.71280884  0.57566316    -0.20600
F889        F  0.10835617  0.67372162  0.61696609    -0.20300
F890        F  0.30368224  0.67618285  0.57483877    -0.20400
F891        F  0.29539029  0.63309877  0.61178648    -0.20700
F892        F  0.29760305  0.68500349  0.63276909    -0.23400
C893        C  0.35070156  0.73144380  0.68586335    -0.06200
C894        C  0.33715011  0.73111556  0.72072943    -0.00300
C895        C  0.34733713  0.70426633  0.74278018    -0.08800
C896        C  0.36756301  0.67769248  0.72806037    -0.06200
C897        C  0.37881488  0.67698616  0.69257983    -0.00300
C898        C  0.37137094  0.70489329  0.67136230    -0.08800
C899        C  0.38639989  0.70737729  0.63428033     0.61600
H900        H  0.34465982  0.75281983  0.66965194     0.12300
H901        H  0.37521453  0.65695161  0.74462431     0.12300
C902        C  0.33743698  0.70320739  0.78158216     0.61900
F903        F  0.37647144  0.73709635  0.61850372    -0.23300
F904        F  0.37309656  0.68166669  0.61357721    -0.20600
F905        F  0.42428084  0.70551184  0.63525846    -0.20300
F906        F  0.29985150  0.70093697  0.78533019    -0.20400
F907        F  0.34998731  0.73167035  0.79839665    -0.20700
F908        F  0.35322650  0.67611080  0.79834477    -0.23400
C909        C  0.22820541  0.59008782  0.66312648    -0.06200
C910        C  0.26509837  0.58068446  0.66449068    -0.00300
C911        C  0.29024563  0.59887936  0.68533031    -0.08800
C912        C  0.27852476  0.62915495  0.70028197    -0.06200
C913        C  0.24157031  0.63880709  0.69863942    -0.00300
C914        C  0.21548142  0.61815133  0.68151001    -0.08800
C915        C  0.17445667  0.62468088  0.68364514     0.61600
H916        H  0.20916273  0.57406104  0.64916086     0.12300
H917        H  0.29764217  0.64476783  0.71462255     0.12300
C918        C  0.32796856  0.58475154  0.69397816     0.61900
F919        F  0.15446125  0.60115461  0.66500859    -0.23300
F920        F  0.16598761  0.65542412  0.67004964    -0.20600
F921        F  0.16347013  0.62362639  0.71835996    -0.20300
F922        F  0.34819188  0.58070473  0.66357626    -0.20400
F923        F  0.32432100  0.55416111  0.71006618    -0.20700
F924        F  0.34715974  0.60521051  0.71677219    -0.23400
C925        C  0.22391629  0.37529623  0.62986069    -0.06200
C926        C  0.19372309  0.35358561  0.62603047    -0.00300
C927        C  0.18462801  0.34294763  0.59160637    -0.08800
C928        C  0.20677971  0.35278587  0.56296769    -0.06200
C929        C  0.23972121  0.37121116  0.56723407    -0.00300
C930        C  0.24808381  0.38289440  0.60176591    -0.08800
C931        C  0.28349799  0.40113019  0.60976416     0.61600
H932        H  0.23076556  0.38336400  0.65627025     0.12300
H933        H  0.19927152  0.34410443  0.53693109     0.12300
C934        C  0.15248589  0.31987255  0.58550635     0.61900
F935        F  0.28773414  0.40765538  0.64532146    -0.23300
F936        F  0.28364237  0.43113789  0.59222035    -0.20600
F937        F  0.31323470  0.38187596  0.59930864    -0.20300
F938        F  0.12105809  0.33448691  0.59908142    -0.20400
F939        F  0.15883445  0.28983909  0.60212174    -0.20700
F940        F  0.14664347  0.31340026  0.55006163    -0.23400
C941        C  0.21623965  0.42824890  0.71155424    -0.06200
C942        C  0.24299837  0.41492581  0.73404762    -0.00300
C943        C  0.27821413  0.42903319  0.73597990    -0.08800
C944        C  0.28729177  0.45361033  0.71189032    -0.06200
C945        C  0.26158985  0.46478740  0.68722426    -0.00300
C946        C  0.22493432  0.45362515  0.68805529    -0.08800
C947        C  0.19574020  0.46766596  0.66355839     0.61600
H948        H  0.18918876  0.41725441  0.71107841     0.12300
H949        H  0.31468045  0.46392618  0.71176232     0.12300
C950        C  0.30636537  0.41708828  0.76231178     0.61900
F951        F  0.16266906  0.45131003  0.66689698    -0.23300
F952        F  0.20708568  0.46444944  0.62899651    -0.20600
F953        F  0.18973761  0.50099279  0.67132970    -0.20300
F954        F  0.31910518  0.38640171  0.75152394    -0.20400
F955        F  0.29067175  0.41450406  0.79525942    -0.20700
F956        F  0.33585541  0.43848646  0.76494572    -0.23400
C957        C  0.34531961  0.28623789  0.68753631    -0.06200
C958        C  0.34145163  0.29411286  0.72363294    -0.00300
C959        C  0.35844629  0.32358664  0.73614455    -0.08800
C960        C  0.37331328  0.34623044  0.71135319    -0.06200
C961        C  0.37407961  0.33975883  0.67457299    -0.00300
C962        C  0.36039232  0.30847801  0.66297405    -0.08800
C963        C  0.36307069  0.29639186  0.62512633     0.61600
H964        H  0.33424843  0.26288781  0.67780710     0.12300
H965        H  0.38740111  0.36821879  0.72089261     0.12300
C966        C  0.36374979  0.32977386  0.77534705     0.61900
F967        F  0.33015597  0.28234361  0.61473816    -0.23300
F968        F  0.39046329  0.27243744  0.62268245    -0.20600
F969        F  0.37061633  0.32181654  0.60207304    -0.20300
F970        F  0.38096560  0.30244254  0.79020487    -0.20400
F971        F  0.33046214  0.33492056  0.79168929    -0.20700
F972        F  0.38532933  0.35739510  0.78192441    -0.23400
C973        C  0.14665232  0.19287971  0.94611483    -0.06200
C974        C  0.13573100  0.15898393  0.94571166    -0.00300
C975        C  0.15553589  0.13709488  0.92261175    -0.08800
C976        C  0.18001161  0.15103336  0.89759152    -0.06200
C977        C  0.18932970  0.18517648  0.89778601    -0.00300
C978        C  0.17482757  0.20537719  0.92490153    -0.08800
C979        C  0.18883976  0.24054639  0.93088813     0.61600
H980        H  0.13341839  0.21002799  0.96430294     0.12300
H981        H  0.19149730  0.13515058  0.87713769     0.12300
C982        C  0.15425008  0.09938893  0.92422000     0.61900
F983        F  0.17394674  0.25517112  0.96078707    -0.23300
F984        F  0.18029438  0.26041846  0.90253399    -0.20600
F985        F  0.22654659  0.23950588  0.93506140    -0.20300
F986        F  0.12737814  0.08792927  0.94638284    -0.20400
F987        F  0.18778334  0.08762608  0.93616173    -0.20700
F988        F  0.14807565  0.08626920  0.89090126    -0.23400
C989        C  0.58685388  0.67179728  0.43353157    -0.06200
C990        C  0.60210032  0.68295988  0.46537566    -0.00300
C991        C  0.63364493  0.70339882  0.46437578    -0.08800
C992        C  0.64554808  0.71538267  0.43162085    -0.06200
C993        C  0.62920074  0.70546564  0.39949365    -0.00300
C994        C  0.60041444  0.68158139  0.40073059    -0.08800
C995        C  0.58382827  0.66569068  0.36811218     0.61600
H996        H  0.56302043  0.65591366  0.43443221     0.12300
H997        H  0.66852706  0.73233567  0.43136483     0.12300
C998        C  0.65697863  0.71209051  0.49631637     0.61900
F999        F  0.56075390  0.63954845  0.37584329    -0.23300
F1000       F  0.61145106  0.65328351  0.34719139    -0.20600
F1001       F  0.56382889  0.68898224  0.34979405    -0.20300
F1002       F  0.64705123  0.69517581  0.52624798    -0.20400
F1003       F  0.65472449  0.74594689  0.50285289    -0.20700
F1004       F  0.69318239  0.70386793  0.48939707    -0.23400
C1005       C  0.50868270  0.73856719  0.38074968    -0.06200
C1006       C  0.48958297  0.71170017  0.36530268    -0.00300
C1007       C  0.49010818  0.70850735  0.32812239    -0.08800
C1008       C  0.51144428  0.73057977  0.30817277    -0.06200
C1009       C  0.53242735  0.75640865  0.32346948    -0.00300
C1010       C  0.52989316  0.76114246  0.36066540    -0.08800
C1011       C  0.54854419  0.78999750  0.37935778     0.61600
H1012       H  0.50582930  0.74232986  0.40886625     0.12300
H1013       H  0.51184249  0.72764493  0.27983639     0.12300
C1014       C  0.46731349  0.68225271  0.30934624     0.61900
F1015       F  0.53976043  0.79147899  0.41476234    -0.23300
F1016       F  0.53752634  0.81973830  0.36437601    -0.20600
F1017       F  0.58610579  0.78660320  0.37688174    -0.20300
F1018       F  0.43044764  0.68900262  0.31431823    -0.20400
F1019       F  0.47566884  0.65114479  0.32265278    -0.20700
F1020       F  0.47382665  0.68142749  0.27345737    -0.23400
C1021       C  0.62210813  0.61231952  0.27718409    -0.06200
C1022       C  0.65625011  0.62574972  0.28776074    -0.00300
C1023       C  0.67177900  0.61443146  0.32000761    -0.08800
C1024       C  0.65203379  0.59126785  0.34060744    -0.06200
C1025       C  0.61650666  0.58076817  0.33123388    -0.00300
C1026       C  0.60146769  0.59125641  0.29881548    -0.08800
C1027       C  0.56295857  0.58112375  0.28780056     0.61600
H1028       H  0.61030127  0.62031243  0.25243207     0.12300
H1029       H  0.66384480  0.58169871  0.36472123     0.12300
C1030       C  0.70795089  0.62777830  0.33354755     0.61900
F1031       F  0.55263308  0.59498761  0.25598914    -0.23300
F1032       F  0.53824406  0.59184486  0.31309052    -0.20600
F1033       F  0.56091469  0.54686045  0.28437699    -0.20300
F1034       F  0.70535460  0.66191347  0.33815430    -0.20400
F1035       F  0.73535932  0.62029417  0.30964132    -0.20700
F1036       F  0.71767753  0.61405676  0.36559489    -0.23400
C1037       C  0.61339708  0.30688570  0.40393647    -0.06200
C1038       C  0.65051210  0.30836712  0.39328505    -0.00300
C1039       C  0.67411187  0.33042846  0.41142112    -0.08800
C1040       C  0.65909792  0.35180731  0.43752302    -0.06200
C1041       C  0.62114247  0.35289107  0.44511625    -0.00300
C1042       C  0.59817271  0.32895268  0.42909257    -0.08800
C1043       C  0.55798857  0.32616267  0.43891352     0.61600
H1044       H  0.59560885  0.28929124  0.39060485     0.12300
H1045       H  0.67691856  0.36877161  0.45170344     0.12300
C1046       C  0.71449227  0.33218802  0.40256869     0.61900
F1047       F  0.54122411  0.29966606  0.42186419    -0.23300
F1048       F  0.53944698  0.35499897  0.42976255    -0.20600
F1049       F  0.55481495  0.32136941  0.47475409    -0.20300
F1050       F  0.73288108  0.35456275  0.42411763    -0.20400
F1051       F  0.71855605  0.34224035  0.36816543    -0.20700
F1052       F  0.73057200  0.30113768  0.40674657    -0.23400
C1053       C  0.62600556  0.40612496  0.34629834    -0.06200
C1054       C  0.62489876  0.40179606  0.30955076    -0.00300
C1055       C  0.61122962  0.42784323  0.28807936    -0.08800
C1056       C  0.59813866  0.45710730  0.30422045    -0.06200
C1057       C  0.60015091  0.46183744  0.34068603    -0.00300
C1058       C  0.61498256  0.43651109  0.36218094    -0.08800
C1059       C  0.62122268  0.44271844  0.40116968     0.61600
H1060       H  0.63677095  0.38604174  0.36227717     0.12300
H1061       H  0.58753239  0.47729645  0.28829901     0.12300
C1062       C  0.61157397  0.42537653  0.24821164     0.61900
F1063       F  0.64137840  0.41740425  0.41621961    -0.23300
F1064       F  0.58790957  0.44526499  0.41826317    -0.20600
F1065       F  0.64060618  0.47189117  0.40622373    -0.20300
F1066       F  0.59365296  0.39703170  0.23719598    -0.20400
F1067       F  0.64740247  0.42419268  0.23660992    -0.20700
F1068       F  0.59439886  0.45241882  0.23263470    -0.23400
C1069       C  0.49491342  0.39463243  0.25573258    -0.06200
C1070       C  0.49614429  0.39252328  0.29301798    -0.00300
C1071       C  0.52077777  0.36925738  0.30794173    -0.08800
C1072       C  0.53906498  0.34635808  0.28564333    -0.06200
C1073       C  0.53637521  0.34675931  0.24851317    -0.00300
C1074       C  0.51492217  0.37252038  0.23319636    -0.08800
C1075       C  0.51107123  0.37533721  0.19359190     0.61600
H1076       H  0.47607189  0.41254521  0.24428425     0.12300
H1077       H  0.55484206  0.32668981  0.29772494     0.12300
C1078       C  0.52584327  0.36648814  0.34740898     0.61900
F1079       F  0.48761243  0.40111392  0.18418284    -0.23300
F1080       F  0.49720059  0.34598556  0.17984230    -0.20600
F1081       F  0.54491015  0.38137724  0.17879297    -0.20300
F1082       F  0.49408128  0.35457393  0.36233616    -0.20400
F1083       F  0.53401846  0.39737605  0.36169002    -0.20700
F1084       F  0.55442554  0.34505707  0.35588405    -0.23400
C1085       C  0.21603666  0.64426700  0.43021588    -0.06200
C1086       C  0.24659203  0.65549386  0.44909186    -0.00300
C1087       C  0.26521089  0.68453118  0.43895588    -0.08800
C1088       C  0.25399799  0.70034628  0.40807688    -0.06200
C1089       C  0.22433595  0.68848522  0.38831802    -0.00300
C1090       C  0.20382131  0.66102271  0.40015284    -0.08800
C1091       C  0.16842755  0.65053859  0.38220670     0.61600
H1092       H  0.20111438  0.62306236  0.44000513     0.12300
H1093       H  0.26728619  0.72293741  0.39992275     0.12300
C1094       C  0.29570069  0.69934963  0.46145509     0.61900
F1095       F  0.15536795  0.62092129  0.39542241    -0.23300
F1096       F  0.17400401  0.64643907  0.34648677    -0.20600
F1097       F  0.14183397  0.67476891  0.38767023    -0.20300
F1098       F  0.32595370  0.67836442  0.46098539    -0.20400
F1099       F  0.28399241  0.70350139  0.49580719    -0.20700
F1100       F  0.30619493  0.73024227  0.44947548    -0.23400
C1101       C  0.28185744  0.58457128  0.29345980    -0.06200
C1102       C  0.25731261  0.56983579  0.31695307    -0.00300
C1103       C  0.21917315  0.57822023  0.31332836    -0.08800
C1104       C  0.20779964  0.60241450  0.28843880    -0.06200
C1105       C  0.23265686  0.61855359  0.26658057    -0.00300
C1106       C  0.27004134  0.60763053  0.26761322    -0.08800
C1107       C  0.29851179  0.61968989  0.24177952     0.61600
H1108       H  0.31055602  0.57733971  0.29460851     0.12300
H1109       H  0.17939029  0.61044299  0.28736026     0.12300
C1110       C  0.19000019  0.56235223  0.33588030     0.61900
F1111       F  0.31641493  0.59254029  0.22685114    -0.23300
F1112       F  0.32398059  0.63907880  0.25937366    -0.20600
F1113       F  0.28314630  0.63796246  0.21465765    -0.20300
F1114       F  0.20121526  0.56126893  0.37068959    -0.20400
F1115       F  0.18343467  0.53054468  0.32344660    -0.20700
F1116       F  0.15711751  0.57981370  0.33462366    -0.23400
C1117       C  0.36062662  0.75278208  0.39693788    -0.06200
C1118       C  0.36287709  0.71777078  0.39192718    -0.00300
C1119       C  0.33857492  0.70249195  0.36789339    -0.08800
C1120       C  0.31577518  0.72290385  0.34740756    -0.06200
C1121       C  0.31349459  0.75789652  0.35152725    -0.00300
C1122       C  0.33575482  0.77308014  0.37749980    -0.08800
C1123       C  0.33542196  0.81053532  0.38232080     0.61600
H1124       H  0.38015649  0.76433427  0.41470848     0.12300
H1125       H  0.30059599  0.71125016  0.32647994     0.12300
C1126       C  0.33848343  0.66491758  0.36168231     0.61900
F1127       F  0.36027862  0.82074060  0.40778695    -0.23300
F1128       F  0.30081251  0.82105125  0.39247998    -0.20600
F1129       F  0.34443384  0.82556646  0.35093234    -0.20300
F1130       F  0.33216409  0.64882159  0.39305671    -0.20400
F1131       F  0.37184546  0.65447020  0.34815291    -0.20700
F1132       F  0.31129206  0.65527608  0.33823626    -0.23400
C1133       C  0.15289503  0.95082868  0.18132743    -0.06200
C1134       C  0.11558324  0.95999305  0.18390428    -0.00300
C1135       C  0.09560891  0.94921735  0.21346369    -0.08800
C1136       C  0.11280195  0.92727746  0.23762425    -0.06200
C1137       C  0.14923224  0.91545785  0.23315964    -0.00300
C1138       C  0.17022249  0.92910193  0.20549336    -0.08800
C1139       C  0.21063051  0.92078660  0.20115961     0.61600
H1140       H  0.16849441  0.96082647  0.15971584     0.12300
H1141       H  0.09694147  0.91735602  0.25908987     0.12300
C1142       C  0.05620192  0.96034710  0.21906664     0.61900
F1143       F  0.22619573  0.93814428  0.17375786    -0.23300
F1144       F  0.21526447  0.88719598  0.19423378    -0.20600
F1145       F  0.22925917  0.92919102  0.23173202    -0.20300
F1146       F  0.05476708  0.99463388  0.22283588    -0.20400
F1147       F  0.04124302  0.94637904  0.24886253    -0.20700
F1148       F  0.03493116  0.95088682  0.19051251    -0.23400
C1149       C  0.20886830  0.31428367  0.41323194    -0.06200
C1150       C  0.22504457  0.28268952  0.40781204    -0.00300
C1151       C  0.26037141  0.27673047  0.42299285    -0.08800
C1152       C  0.27845163  0.30262407  0.44169783    -0.06200
C1153       C  0.26188806  0.33383880  0.44764803    -0.00300
C1154       C  0.22634607  0.33968104  0.43319577    -0.08800
C1155       C  0.20622239  0.37243448  0.43992738     0.61600
H1156       H  0.18238343  0.31920467  0.40128908     0.12300
H1157       H  0.30486325  0.29763111  0.45387200     0.12300
C1158       C  0.27958443  0.24307499  0.42119706     0.61900
F1159       F  0.17686511  0.37657440  0.41712125    -0.23300
F1160       F  0.22965751  0.39896537  0.43560408    -0.20600
F1161       F  0.19293904  0.37319461  0.47390652    -0.20300
F1162       F  0.30761207  0.24415561  0.39689110    -0.20400
F1163       F  0.25591168  0.21763618  0.41210876    -0.20700
F1164       F  0.29448297  0.23549461  0.45376575    -0.23400
C1165       C  0.37135063  0.35334204  0.29590741    -0.06200
C1166       C  0.36656282  0.38790972  0.30069163    -0.00300
C1167       C  0.33817638  0.40368770  0.28075421    -0.08800
C1168       C  0.31160978  0.38356495  0.26302866    -0.06200
C1169       C  0.31618769  0.34876496  0.25961939    -0.00300
C1170       C  0.34880346  0.33438067  0.27347967    -0.08800
C1171       C  0.36147262  0.29912558  0.26462469     0.61600
H1172       H  0.39511073  0.34126372  0.30767472     0.12300
H1173       H  0.28713206  0.39489311  0.25197451     0.12300
C1174       C  0.33759646  0.44108645  0.27556714     0.61900
F1175       F  0.39648117  0.30024377  0.25078375    -0.23300
F1176       F  0.33930822  0.28356855  0.23990667    -0.20600
F1177       F  0.36232267  0.28023313  0.29486518    -0.20300
F1178       F  0.37128910  0.45124463  0.26321338    -0.20400
F1179       F  0.33033215  0.45743903  0.30679865    -0.20700
F1180       F  0.31113944  0.45048289  0.25125719    -0.23400
C1181       C  0.20795874  0.45636877  0.35604390    -0.06200
C1182       C  0.24529042  0.45689524  0.36507586    -0.00300
C1183       C  0.26419374  0.42613435  0.36972546    -0.08800
C1184       C  0.24697582  0.39683531  0.35813625    -0.06200
C1185       C  0.21071023  0.39666082  0.34504776    -0.00300
C1186       C  0.18983283  0.42672310  0.34689743    -0.08800
C1187       C  0.14900308  0.42839252  0.33887693     0.61600
H1188       H  0.19305125  0.47969953  0.35559163     0.12300
H1189       H  0.26233125  0.37368392  0.35893667     0.12300
C1190       C  0.30157434  0.42339160  0.38766977     0.61900
F1191       F  0.13341621  0.45794577  0.35090959    -0.23300
F1192       F  0.13109858  0.40265573  0.35536147    -0.20600
F1193       F  0.14332284  0.42639548  0.30292792    -0.20300
F1194       F  0.29913726  0.43586848  0.42162168    -0.20400
F1195       F  0.32764628  0.44092801  0.36964881    -0.20700
F1196       F  0.31379675  0.39069558  0.38974672    -0.23400
C1197       C  0.14412800  0.18791668  0.07314656    -0.06200
C1198       C  0.10704397  0.19023703  0.06245529    -0.00300
C1199       C  0.08670199  0.21888642  0.07251017    -0.08800
C1200       C  0.10311579  0.24257838  0.09553390    -0.06200
C1201       C  0.13938807  0.23870575  0.10876014    -0.00300
C1202       C  0.16075133  0.21160386  0.09576587    -0.08800
C1203       C  0.20056135  0.20687376  0.10656495     0.61600
H1204       H  0.16017758  0.16693581  0.06351216     0.12300
H1205       H  0.08679556  0.26334427  0.10524679     0.12300
C1206       C  0.04789710  0.22414857  0.05896885     0.61900
F1207       F  0.21694513  0.18030391  0.08905267    -0.23300
F1208       F  0.20294061  0.20087149  0.14220908    -0.20600
F1209       F  0.22003698  0.23524878  0.09876000    -0.20300
F1210       F  0.04799584  0.22514135  0.02256343    -0.20400
F1211       F  0.03267013  0.25364762  0.07140370    -0.20700
F1212       F  0.02596420  0.19823879  0.06973431    -0.23400
C1213       C  0.17372115  0.10728275  0.16966806    -0.06200
C1214       C  0.14831747  0.13397944  0.17028628    -0.00300
C1215       C  0.11465136  0.13038689  0.15109195    -0.08800
C1216       C  0.10716819  0.09971701  0.13473597    -0.06200
C1217       C  0.12975702  0.07183354  0.13953981    -0.00300
C1218       C  0.16500833  0.07614484  0.15474829    -0.08800
C1219       C  0.19315355  0.04805302  0.15655097     0.61600
H1220       H  0.19994157  0.11007162  0.18282407     0.12300
H1221       H  0.08126776  0.09631592  0.12125257     0.12300
C1222       C  0.08474485  0.15704305  0.14956820     0.61900
F1223       F  0.22840725  0.06037579  0.15959573    -0.23300
F1224       F  0.19173028  0.02865830  0.12626494    -0.20600
F1225       F  0.18650169  0.02844383  0.18552094    -0.20300
F1226       F  0.09896612  0.18646625  0.13838174    -0.20400
F1227       F  0.06972990  0.16193044  0.18237949    -0.20700
F1228       F  0.05658567  0.14880867  0.12658470    -0.23400
C1229       C  0.86565812  0.18055502  0.19599454    -0.06200
C1230       C  0.86262751  0.14605658  0.20015692    -0.00300
C1231       C  0.83701110  0.13403183  0.22506786    -0.08800
C1232       C  0.81256322  0.15690609  0.24180493    -0.06200
C1233       C  0.81617345  0.19157147  0.23778370    -0.00300
C1234       C  0.84518213  0.20332166  0.21637562    -0.08800
C1235       C  0.85673097  0.23963252  0.21531024     0.61600
H1236       H  0.88717461  0.18993129  0.17920533     0.12300
H1237       H  0.79050967  0.14785604  0.25803180     0.12300
C1238       C  0.83657763  0.09750350  0.23496570     0.61900
F1239       F  0.89451352  0.24157776  0.21811334    -0.23300
F1240       F  0.84221931  0.25835071  0.24275226    -0.20600
F1241       F  0.84595828  0.25341228  0.18366154    -0.20300
F1242       F  0.87045361  0.08823959  0.24836365    -0.20400
F1243       F  0.82894610  0.07805504  0.20578149    -0.20700
F1244       F  0.81041786  0.09112085  0.26025364    -0.23400
C1245       C  0.98170354  0.15642580  0.24748507    -0.06200
C1246       C  0.98986363  0.12966789  0.22382566    -0.00300
C1247       C  0.02599751  0.11605326  0.22573506    -0.08800
C1248       C  0.05292318  0.13225930  0.24734647    -0.06200
C1249       C  0.04508214  0.16133416  0.26753369    -0.00300
C1250       C  0.00825268  0.17215920  0.26897739    -0.08800
C1251       C  0.99770955  0.20275592  0.29056927     0.61600
H1252       H  0.95435837  0.16702834  0.24768604     0.12300
H1253       H  0.08129685  0.12415117  0.24594044     0.12300
C1254       C  0.03639191  0.08499209  0.20502272     0.61900
F1255       F  0.96003253  0.20627736  0.29357794    -0.23300
F1256       F  0.01123022  0.23098312  0.27478807    -0.20600
F1257       F  0.01230514  0.20025853  0.32412233    -0.20300
F1258       F  0.03357566  0.09100516  0.16943317    -0.20400
F1259       F  0.01312687  0.05933848  0.21369680    -0.20700
F1260       F  0.07203253  0.07479246  0.21212408    -0.23400
C1261       C  0.69835219  0.91122626  0.19111039    -0.06200
C1262       C  0.70546035  0.91024770  0.22753564    -0.00300
C1263       C  0.73430316  0.93020212  0.24122678    -0.08800
C1264       C  0.75667169  0.94828860  0.21783971    -0.06200
C1265       C  0.75049598  0.94845380  0.18121291    -0.00300
C1266       C  0.71943172  0.93102001  0.16802507    -0.08800
C1267       C  0.70674991  0.93560352  0.13033708     0.61600
H1268       H  0.67597664  0.89642596  0.18080873     0.12300
H1269       H  0.77853850  0.96365097  0.22827173     0.12300
C1270       C  0.74016467  0.93371897  0.28073215     0.61900
F1271       F  0.67900151  0.91373463  0.12128725    -0.23300
F1272       F  0.73559517  0.93034736  0.10749113    -0.20600
F1273       F  0.69363093  0.96778511  0.12629792    -0.20300
F1274       F  0.75554157  0.90489966  0.29413950    -0.20400
F1275       F  0.70687942  0.93984161  0.29706985    -0.20700
F1276       F  0.76324270  0.95989761  0.28895255    -0.23400
C1277       C  0.71752890  0.06660719  0.16862129    -0.06200
C1278       C  0.75287687  0.06618784  0.15394745    -0.00300
C1279       C  0.76966746  0.09712208  0.14639906    -0.08800
C1280       C  0.75295563  0.12664710  0.15927591    -0.06200
C1281       C  0.71833067  0.12677587  0.17589086    -0.00300
C1282       C  0.69922702  0.09616174  0.17815111    -0.08800
C1283       C  0.65933874  0.09395357  0.18925870     0.61600
H1284       H  0.70365858  0.04319470  0.17240266     0.12300
H1285       H  0.76690322  0.15008091  0.15588293     0.12300
C1286       C  0.80360797  0.09963369  0.12344690     0.61900
F1287       F  0.64456620  0.06304810  0.18144146    -0.23300
F1288       F  0.63861111  0.11737127  0.17140976    -0.20600
F1289       F  0.65643216  0.09913395  0.22513809    -0.20300
F1290       F  0.79654383  0.08539402  0.09086468    -0.20400
F1291       F  0.83297947  0.08336501  0.13873269    -0.20700
F1292       F  0.81360156  0.13238728  0.11799262    -0.23400
C1293       C  0.98966217  0.78343926  0.15351181    -0.06200
C1294       C  0.99668487  0.80308983  0.12347698    -0.00300
C1295       C  0.03100389  0.79866405  0.10657754    -0.08800
C1296       C  0.05817187  0.77812260  0.12281027    -0.06200
C1297       C  0.05168894  0.76115503  0.15461961    -0.00300
C1298       C  0.01599180  0.76211991  0.16863148    -0.08800
C1299       C  0.00617220  0.74128762  0.20040016     0.61600
H1300       H  0.96330612  0.78555046  0.16632450     0.12300
H1301       H  0.08582292  0.77768224  0.11249318     0.12300
C1302       C  0.03906980  0.81551948  0.07200244     0.61900
F1303       F  0.96951624  0.74471085  0.20930438    -0.23300
F1304       F  0.02697613  0.75057154  0.22933792    -0.20600
F1305       F  0.01290026  0.70805844  0.19269379    -0.20300
F1306       F  0.03880092  0.84969690  0.07645664    -0.20400
F1307       F  0.01268409  0.80674337  0.04741203    -0.20700
F1308       F  0.07304936  0.80617189  0.05893005    -0.23400
C1309       C  0.87263657  0.82220059  0.17404259    -0.06200
C1310       C  0.86936149  0.82119436  0.13719585    -0.00300
C1311       C  0.84449420  0.79765071  0.12219800    -0.08800
C1312       C  0.82037592  0.78001264  0.14457195    -0.06200
C1313       C  0.82394018  0.78136238  0.18148276    -0.00300
C1314       C  0.85288224  0.80070580  0.19587967    -0.08800
C1315       C  0.86540224  0.79794389  0.23392655     0.61600
H1316       H  0.89403826  0.83737098  0.18579254     0.12300
H1317       H  0.79886865  0.76488070  0.13304592     0.12300
C1318       C  0.84313566  0.78900367  0.08327786     0.61900
F1319       F  0.90307140  0.79336022  0.23496545    -0.23300
F1320       F  0.84994132  0.77115549  0.25088329    -0.20600
F1321       F  0.85656511  0.82695793  0.25194992    -0.20300
F1322       F  0.85038731  0.75533129  0.07887447    -0.20400
F1323       F  0.86819718  0.80632901  0.06349656    -0.20700
F1324       F  0.80842454  0.79581776  0.07043778    -0.23400
C1325       C  0.13177806  0.97503574  0.80975682    -0.06200
C1326       C  0.09456985  0.97517000  0.81870079    -0.00300
C1327       C  0.07090764  0.95083532  0.80457257    -0.08800
C1328       C  0.08641218  0.92421646  0.78570993    -0.06200
C1329       C  0.12422325  0.92265629  0.77896715    -0.00300
C1330       C  0.14719650  0.94928675  0.78946252    -0.08800
C1331       C  0.18751377  0.95071058  0.77972472     0.61600
H1332       H  0.14865451  0.99550892  0.81886438     0.12300
H1333       H  0.06914947  0.90405502  0.77644662     0.12300
C1334       C  0.02958992  0.95372716  0.80820594     0.61900
F1335       F  0.19074456  0.95218159  0.74353169    -0.23300
F1336       F  0.20585533  0.92284657  0.79203831    -0.20600
F1337       F  0.20444748  0.97859773  0.79387599    -0.20300
F1338       F  0.01768560  0.98454482  0.79652278    -0.20400
F1339       F  0.01996179  0.95007191  0.84305382    -0.20700
F1340       F  0.01169902  0.92972451  0.78844028    -0.23400
C1341       C  0.09417313  0.15159383  0.81333536    -0.06200
C1342       C  0.10943367  0.14695282  0.77982055    -0.00300
C1343       C  0.10556502  0.11636589  0.76186943    -0.08800
C1344       C  0.08932300  0.09022257  0.77988614    -0.06200
C1345       C  0.07813186  0.09361323  0.81530313    -0.00300
C1346       C  0.07865049  0.12539170  0.83175879    -0.08800
C1347       C  0.06388724  0.13203045  0.86845265     0.61600
H1348       H  0.09629136  0.17576371  0.82588519     0.12300
H1349       H  0.08720982  0.06623460  0.76678727     0.12300
C1350       C  0.11892331  0.11097135  0.72439820     0.61900
F1351       F  0.06725363  0.16509051  0.87850440    -0.23300
F1352       F  0.08255179  0.11321309  0.89283439    -0.20600
F1353       F  0.02728675  0.12392568  0.86927166    -0.20300
F1354       F  0.15677783  0.10839509  0.72418659    -0.20400
F1355       F  0.10795449  0.13732376  0.70352261    -0.20700
F1356       F  0.10482920  0.08209963  0.70960976    -0.23400
C1357       C  0.85899149  0.88893995  0.76968419    -0.06200
C1358       C  0.86234349  0.89658443  0.80572931    -0.00300
C1359       C  0.83176751  0.89267633  0.82803794    -0.08800
C1360       C  0.80056294  0.87732576  0.81415938    -0.06200
C1361       C  0.79941807  0.86430202  0.77951755    -0.00300
C1362       C  0.82767683  0.87317176  0.75584466    -0.08800
C1363       C  0.82571686  0.86597531  0.71656997     0.61600
H1364       H  0.88233837  0.89323508  0.75281966     0.12300
H1365       H  0.77795622  0.87283064  0.83174808     0.12300
C1366       C  0.83291008  0.90133704  0.86711155     0.61900
F1367       F  0.85185284  0.88371645  0.69837007    -0.23300
F1368       F  0.79165787  0.87524790  0.70357626    -0.20600
F1369       F  0.83179370  0.83245099  0.71003146    -0.20300
F1370       F  0.84157147  0.93447008  0.87164427    -0.20400
F1371       F  0.85907388  0.88194601  0.88379204    -0.20700
F1372       F  0.79959130  0.89611126  0.88344176    -0.23400
C1373       C  0.99046768  0.85874992  0.77165384    -0.06200
C1374       C  0.98764512  0.85763056  0.80854733    -0.00300
C1375       C  0.00596021  0.83201484  0.82692832    -0.08800
C1376       C  0.02605292  0.80814557  0.80746411    -0.06200
C1377       C  0.03174260  0.81094093  0.77086366    -0.00300
C1378       C  0.01252453  0.83630930  0.75233416    -0.08800
C1379       C  0.01488899  0.84030996  0.71264044     0.61600
H1380       H  0.97524931  0.87800086  0.75795886     0.12300
H1381       H  0.03934993  0.78790031  0.82130523     0.12300
C1382       C  0.00516485  0.83022951  0.86678368     0.61900
F1383       F  0.99118288  0.86478333  0.70040924    -0.23300
F1384       F  0.00558600  0.81076021  0.69596761    -0.20600
F1385       F  0.05000913  0.84927260  0.70334926    -0.20300
F1386       F  0.02295223  0.80201035  0.87915291    -0.20400
F1387       F  0.96934839  0.82965514  0.87854539    -0.20700
F1388       F  0.02269003  0.85779238  0.88080887    -0.23400
C1389       C  0.83879010  0.21424684  0.78685847    -0.06200
C1390       C  0.83202638  0.24643919  0.79976803    -0.00300
C1391       C  0.84389952  0.25473397  0.83436586    -0.08800
C1392       C  0.86080372  0.22992353  0.85532801    -0.06200
C1393       C  0.86686141  0.19723492  0.84271439    -0.00300
C1394       C  0.85655206  0.18976373  0.80742705    -0.08800
C1395       C  0.86504460  0.15605129  0.79104527     0.61600
H1396       H  0.82906464  0.20813502  0.76065230     0.12300
H1397       H  0.87134185  0.23643076  0.88117993     0.12300
C1398       C  0.83917593  0.28993675  0.84872982     0.61900
F1399       F  0.85321740  0.15475681  0.75651794    -0.23300
F1400       F  0.84764692  0.13150045  0.80982312    -0.20600
F1401       F  0.90237159  0.14976175  0.79102239    -0.20300
F1402       F  0.80275042  0.29602953  0.85663383    -0.20400
F1403       F  0.85056141  0.31263530  0.82393104    -0.20700
F1404       F  0.85967718  0.29498126  0.87902972    -0.23400
C1405       C  0.03020009  0.24173497  0.83605785    -0.06200
C1406       C  0.03730503  0.23773996  0.79948766    -0.00300
C1407       C  0.02030511  0.21037340  0.78219697    -0.08800
C1408       C  0.99995175  0.18705765  0.80250257    -0.06200
C1409       C  0.99497999  0.19036239  0.83945709    -0.00300
C1410       C  0.00967828  0.21897126  0.85600493    -0.08800
C1411       C  0.00189135  0.22635803  0.89462294     0.61600
H1412       H  0.04138402  0.26327892  0.84951271     0.12300
H1413       H  0.98576842  0.16690807  0.78923152     0.12300
C1414       C  0.02130402  0.20713436  0.74243793     0.61900
F1415       F  0.01947040  0.25480542  0.90642590    -0.23300
F1416       F  0.01375140  0.19995712  0.91496768    -0.20600
F1417       F  0.96460951  0.23100682  0.89953875    -0.20300
F1418       F  0.05671100  0.20138904  0.73106479    -0.20400
F1419       F  0.00816127  0.23629807  0.72766989    -0.20700
F1420       F  0.99970589  0.18119121  0.73036445    -0.23400
C1421       C  0.71744653  0.93182626  0.86269814    -0.06200
C1422       C  0.74034582  0.94620398  0.83772103    -0.00300
C1423       C  0.73653847  0.93570888  0.80179915    -0.08800
C1424       C  0.71034202  0.91115218  0.79260226    -0.06200
C1425       C  0.68740002  0.89647518  0.81756711    -0.00300
C1426       C  0.69076712  0.90766225  0.85342263    -0.08800
C1427       C  0.66554187  0.89541977  0.88215274     0.61600
H1428       H  0.71991004  0.94046823  0.88968877     0.12300
H1429       H  0.70845457  0.90238685  0.76561893     0.12300
C1430       C  0.76049637  0.94971261  0.77282579     0.61900
F1431       F  0.66646764  0.91608592  0.91157048    -0.23300
F1432       F  0.67615104  0.86398592  0.89265009    -0.20600
F1433       F  0.62975582  0.89466873  0.87000522    -0.20300
F1434       F  0.79652930  0.95204301  0.78411543    -0.20400
F1435       F  0.74775583  0.98091190  0.76334205    -0.20700
F1436       F  0.76007804  0.92965219  0.74300009    -0.23400
C1437       C  0.79259785  0.06811168  0.78547318    -0.06200
C1438       C  0.76995423  0.06047592  0.81396105    -0.00300
C1439       C  0.73710662  0.07862752  0.81945740    -0.08800
C1440       C  0.73145496  0.10755681  0.80009569    -0.06200
C1441       C  0.75662209  0.11789252  0.77486413    -0.00300
C1442       C  0.78531824  0.09598344  0.76432484    -0.08800
C1443       C  0.80636248  0.09865097  0.73018422     0.61600
H1444       H  0.81540049  0.05163398  0.77912144     0.12300
H1445       H  0.70726903  0.12282566  0.80485456     0.12300
C1446       C  0.70805867  0.06748544  0.84532122     0.61900
F1447       F  0.84362003  0.09587696  0.73664053    -0.23300
F1448       F  0.79939589  0.12813481  0.71279719    -0.20600
F1449       F  0.79641422  0.07251140  0.70824824    -0.20300
F1450       F  0.72297413  0.06523696  0.87871258    -0.20400
F1451       F  0.69475068  0.03669969  0.83516267    -0.20700
F1452       F  0.67854628  0.08941413  0.84667804    -0.23400
C1453       C  0.10852773  0.89414532  0.08985746    -0.06200
C1454       C  0.13467538  0.89538888  0.06298417    -0.00300
C1455       C  0.17137369  0.88569780  0.07036313    -0.08800
C1456       C  0.17869168  0.86945316  0.10203896    -0.06200
C1457       C  0.15107999  0.86342634  0.12687025    -0.00300
C1458       C  0.11564444  0.87800456  0.12169315    -0.08800
C1459       C  0.08433769  0.87545564  0.14789188     0.61600
H1460       H  0.08118166  0.90358847  0.08470651     0.12300
H1461       H  0.20622649  0.86014667  0.10673628     0.12300
C1462       C  0.20304662  0.89165238  0.04537411     0.61900
F1463       F  0.05392329  0.89417093  0.13811674    -0.23300
F1464       F  0.09532589  0.88687322  0.18033849    -0.20600
F1465       F  0.07357150  0.84284394  0.15086447    -0.20300
F1466       F  0.19933424  0.92249104  0.02973287    -0.20400
F1467       F  0.20412248  0.86692308  0.01979296    -0.20700
F1468       F  0.23635987  0.89132491  0.06308934    -0.23400
C1469       C  0.16051095  0.84729729  0.94116155    -0.06200
C1470       C  0.14708930  0.87985396  0.93659823    -0.00300
C1471       C  0.15843926  0.89829114  0.90709124    -0.08800
C1472       C  0.18021847  0.88217534  0.88129674    -0.06200
C1473       C  0.19141756  0.84873697  0.88486699    -0.00300
C1474       C  0.18300126  0.83166322  0.91613299    -0.08800
C1475       C  0.19547461  0.79619790  0.92318984     0.61600
H1476       H  0.15300281  0.83365873  0.96453737     0.12300
H1477       H  0.18605212  0.89470948  0.85684552     0.12300
C1478       C  0.14772384  0.93462957  0.90301824     0.61900
F1479       F  0.21122865  0.79460995  0.95634457    -0.23300
F1480       F  0.22122962  0.78492827  0.89914569    -0.20600
F1481       F  0.16549144  0.77532309  0.92196087    -0.20300
F1482       F  0.15788628  0.95239656  0.93284020    -0.20400
F1483       F  0.11021734  0.93748679  0.89817343    -0.20700
F1484       F  0.16490102  0.94875216  0.87451221    -0.23400
C1485       C  0.69354493  0.19649062  0.09776438    -0.06200
C1486       C  0.70395918  0.23006934  0.09540001    -0.00300
C1487       C  0.73328051  0.23816970  0.07252145    -0.08800
C1488       C  0.75221790  0.21228507  0.05438406    -0.06200
C1489       C  0.74211700  0.17870573  0.05717455    -0.00300
C1490       C  0.71142414  0.17088372  0.07830614    -0.08800
C1491       C  0.69609786  0.13587162  0.07837447     0.61600
H1492       H  0.67102271  0.19037601  0.11492063     0.12300
H1493       H  0.77406827  0.21827744  0.03635468     0.12300
C1494       C  0.74284843  0.27421712  0.06534194     0.61900
F1495       F  0.66999748  0.13200071  0.10429588    -0.23300
F1496       F  0.72387663  0.11294243  0.08408507    -0.20600
F1497       F  0.67987777  0.12912087  0.04615881    -0.20300
F1498       F  0.76718981  0.27688527  0.03765424    -0.20400
F1499       F  0.75872738  0.28869858  0.09472571    -0.20700
F1500       F  0.71131478  0.29174624  0.05658855    -0.23400
C1501       C  0.68868244  0.14975915  0.94023574    -0.06200
C1502       C  0.72550198  0.13800926  0.93822932    -0.00300
C1503       C  0.74261795  0.13743406  0.90478710    -0.08800
C1504       C  0.72324186  0.15039144  0.87566789    -0.06200
C1505       C  0.68827118  0.16532760  0.87843451    -0.00300
C1506       C  0.67029042  0.16436515  0.91115162    -0.08800
C1507       C  0.63357008  0.18173163  0.91592213     0.61600
H1508       H  0.67543201  0.15019953  0.96568416     0.12300
H1509       H  0.73708906  0.15229702  0.85080504     0.12300
C1510       C  0.78231553  0.12643317  0.90000788     0.61900
F1511       F  0.61890463  0.17600736  0.94882730    -0.23300
F1512       F  0.60901827  0.17027367  0.89082350    -0.20600
F1513       F  0.63784299  0.21572914  0.91208730    -0.20300
F1514       F  0.78666459  0.09369476  0.91031780    -0.20400
F1515       F  0.80504691  0.14670852  0.91991541    -0.20700
F1516       F  0.79339776  0.12838047  0.86530783    -0.23400
C1517       C  0.72573271  0.84139646  0.04621825    -0.06200
C1518       C  0.75994099  0.85690244  0.04899401    -0.00300
C1519       C  0.77376869  0.86543525  0.08286993    -0.08800
C1520       C  0.75404838  0.85563335  0.11261821    -0.06200
C1521       C  0.72111088  0.83766466  0.11013361    -0.00300
C1522       C  0.70561624  0.83188979  0.07602265    -0.08800
C1523       C  0.66831699  0.81589278  0.07024403     0.61600
H1524       H  0.71522842  0.83603536  0.02010295     0.12300
H1525       H  0.76516535  0.86134218  0.13838919     0.12300
C1526       C  0.80979731  0.88368254  0.08820836     0.61900
F1527       F  0.65731801  0.81705591  0.03532791    -0.23300
F1528       F  0.64207367  0.83269592  0.08989906    -0.20600
F1529       F  0.66958553  0.78272407  0.07970534    -0.20300
F1530       F  0.80637069  0.91588975  0.07601469    -0.20400
F1531       F  0.83754460  0.86744542  0.07020937    -0.20700
F1532       F  0.82005885  0.88540511  0.12332879    -0.23400
C1533       C  0.82698010  0.80541132  0.90848492    -0.06200
C1534       C  0.80669761  0.80398608  0.93987310    -0.00300
C1535       C  0.78498001  0.77450741  0.94465982    -0.08800
C1536       C  0.77768630  0.75316065  0.91545503    -0.06200
C1537       C  0.79382494  0.75796715  0.88260391    -0.00300
C1538       C  0.82216385  0.78196651  0.88075762    -0.08800
C1539       C  0.84677787  0.78420201  0.84895385     0.61600
H1540       H  0.84649383  0.82522915  0.90514457     0.12300
H1541       H  0.75657532  0.73442302  0.91739690     0.12300
C1542       C  0.76885764  0.76471006  0.97979203     0.61900
F1543       F  0.88304733  0.78366711  0.85983754    -0.23300
F1544       F  0.83987016  0.81360310  0.83151060    -0.20600
F1545       F  0.84160717  0.75777968  0.82581773    -0.20300
F1546       F  0.73742743  0.78312413  0.98646080    -0.20400
F1547       F  0.79431393  0.76953733  0.00636530    -0.20700
F1548       F  0.75966237  0.73127912  0.98006701    -0.23400
loop_ 
_geom_bond_atom_site_label_1 
_geom_bond_atom_site_label_2 
_geom_bond_distance 
_geom_bond_site_symmetry_2 
_ccdc_geom_bond_type 
C1            N2   1.351       .  A
C1            N6   1.358   1_554  A
C1         C1518   1.487       .  S
N2            C3   1.354   1_554  A
C3            N4   1.382       .  A
C3          C684   1.501       .  S
N4            C5   1.384       .  A
C5            N6   1.359       .  A
C5         C1534   1.534       .  S
C7            N8   1.377       .  A
C7           N12   1.349   1_554  A
C7         C1489   1.494       .  S
N8            C9   1.378       .  A
C9           N10   1.374   1_554  A
C9          C716   1.521       .  S
N10          C11   1.371       .  A
C11          N12   1.349       .  A
C11        C1502   1.509       .  S
C13          N14   1.353       .  A
C13          N18   1.348   1_554  A
C13        C1454   1.479       .  S
N14          C15   1.353   1_554  A
C15          N16   1.365       .  A
C15         C685   1.462       .  S
N16          C17   1.367       .  A
C17          N18   1.352       .  A
C17        C1470   1.478       .  S
C19          N20   1.343       .  A
C19          N24   1.356       .  A
C19        C1438   1.458       .  S
N20          C21   1.346   1_545  A
C21          N22   1.381       .  A
C21        C1422   1.507       .  S
N22          C23   1.383   1_565  A
C23          N24   1.360       .  A
C23         C720   1.506       .  S
C25          N26   1.336       .  A
C25          N30   1.378       .  A
C25        C1393   1.482       .  S
N26          C27   1.332       .  A
C27          N28   1.384       .  A
C27        C1409   1.504       .  S
N28          C29   1.389       .  A
C29          N30   1.383       .  A
C29         C721   1.545       .  S
C31          N32   1.347       .  A
C31          N36   1.351       .  A
C31        C1358   1.474       .  S
N32          C33   1.352       .  A
C33          N34   1.370       .  A
C33        C1374   1.482       .  S
N34          C35   1.370       .  A
C35          N36   1.354       .  A
C35         C686   1.474       .  S
C37          N38   1.346       .  A
C37          N42   1.355       .  A
C37        C1345   1.474       .  S
N38          C39   1.342       .  A
C39          N40   1.355       .  A
C39        C1326   1.455   1_545  S
N40          C41   1.358       .  A
C41          N42   1.357       .  A
C41         C717   1.449       .  S
C43          N44   1.339       .  A
C43          N48   1.374       .  A
C43        C1310   1.493       .  S
N44          C45   1.345       .  A
C45          N46   1.378       .  A
C45        C1294   1.514       .  S
N46          C47   1.383       .  A
C47          N48   1.380       .  A
C47         C687   1.526       .  S
C49          N50   1.353       .  A
C49          N54   1.355       .  A
C49        C1278   1.496       .  S
N50          C51   1.349   1_545  A
C51          N52   1.382       .  A
C51        C1265   1.505       .  S
N52          C53   1.383       .  A
C53          N54   1.359   1_565  A
C53         C719   1.502       .  S
C55          N56   1.368       .  A
C55          N60   1.344       .  A
C55        C1230   1.488       .  S
N56          C57   1.373       .  A
C57          N58   1.392       .  A
C57         C722   1.531       .  S
N58          C59   1.386       .  A
C59          N60   1.349       .  A
C59        C1246   1.538       .  S
Zr61         O62   2.440       .  S
Zr61         O63   2.417       .  S
Zr61         O64   2.360       .  S
Zr61         O67   2.386       .  S
Zr61         O69   2.374       .  S
Zr61         O70   2.387       .  S
Zr61         O71   2.408       .  S
Zr61         O72   2.400       .  S
O62         H118   0.989       .  S
O62         H126   0.989       .  S
O63          C83   1.281       .  A
O64          C85   1.269       .  A
O65         Zr75   2.522       .  S
O65          C84   1.294       .  A
O66         Zr74   2.534       .  S
O66          C85   1.301       .  A
O67          C84   1.265       .  A
O68         Zr76   2.426       .  S
O68          C83   1.280       .  A
O69         Zr74   2.394       .  S
O69         Zr76   2.377       .  S
O70         Zr75   2.427       .  S
O70         Zr76   2.362       .  S
O70         H105   0.964       .  S
O71         Zr74   2.407       .  S
O71         Zr91   2.393       .  S
O71         H108   0.963       .  S
O72         Zr75   2.424       .  S
O72         Zr91   2.402       .  S
Zr73         O98   2.438       .  S
Zr73         O92   2.406       .  S
Zr73        O100   2.374       .  S
Zr73         O88   2.378       .  S
Zr73         O79   2.386       .  S
Zr73         O80   2.391       .  S
Zr73         O81   2.378       .  S
Zr73         O82   2.379       .  S
Zr74         O93   2.436       .  S
Zr74         O86   2.434       .  S
Zr74         O87   2.529       .  S
Zr74         O80   2.404       .  S
Zr74         O81   2.393       .  S
Zr75         O77   2.435       .  S
Zr75         O99   2.434       .  S
Zr75        O101   2.556       .  S
Zr75         O79   2.411       .  S
Zr75         O82   2.395       .  S
Zr76        O102   2.436       .  S
Zr76        O103   2.437       .  S
Zr76         O78   2.439       .  S
Zr76         O79   2.409       .  S
Zr76         O80   2.392       .  S
O77         H114   0.990       .  S
O78         H109   0.990       .  S
O78         H123   0.990       .  S
O80         H106   0.966       .  S
O81         Zr91   2.373       .  S
O82         Zr91   2.363       .  S
O82         H107   0.965       .  S
C83        C1185   1.495       .  S
C84        C1150   1.509       .  S
C85        C1169   1.498       .  S
O86         H122   0.990       .  S
O87          C89   1.302       .  A
O88          C89   1.270       .  A
C89        C1201   1.505       .  S
O90         Zr91   2.436       .  S
O90         H119   0.990       .  S
Zr91         O94   2.436       .  S
Zr91         O95   2.439       .  S
Zr91         O96   2.435       .  S
O92          C97   1.275       .  A
O93         H110   0.989       .  S
O93         H125   0.990       .  S
O94         H111   0.990       .  S
O95         H115   0.990       .  S
O95         H124   0.990       .  S
O96          C97   1.285       .  A
C97        C1214   1.498       .  S
O98         H117   0.990       .  S
O98         H121   0.990       .  S
O99         H113   0.990       .  S
O99         H120   0.990       .  S
O100        C104   1.272       .  A
O101        C104   1.309       .  A
O102        H112   0.990       .  S
O103        H116   0.990       .  S
C104       C1249   1.503       .  S
C127        N128   1.358       .  A
C127        N132   1.347       .  A
C127       C1217   1.483       .  S
N128        C129   1.359       .  A
C129        N130   1.377   1_545  A
C129        C718   1.497       .  S
N130        C131   1.378       .  A
C131        N132   1.351   1_565  A
C131       C1134   1.496       .  S
Zr133       O134   2.444       .  S
Zr133       O135   2.441       .  S
Zr133       O136   2.375       .  S
Zr133       O139   2.361       .  S
Zr133       O141   2.382       .  S
Zr133       O142   2.379       .  S
Zr133       O143   2.403       .  S
Zr133       O144   2.384       .  S
O134        H190   0.988       .  S
O134        H198   0.990       .  S
O135        C155   1.283       .  A
O136        C157   1.260       .  A
O137       Zr147   2.557       .  S
O137        C156   1.310       .  A
O138       Zr146   2.538       .  S
O138        C157   1.297       .  A
O139        C156   1.272       .  A
O140       Zr148   2.376       .  S
O140        C155   1.271       .  A
O141       Zr146   2.391       .  S
O141       Zr148   2.381       .  S
O142       Zr147   2.381       .  S
O142       Zr148   2.372       .  S
O142        H177   0.966       .  S
O143       Zr146   2.413       .  S
O143       Zr163   2.379       .  S
O143        H180   0.966       .  S
O144       Zr147   2.400       .  S
O144       Zr163   2.404       .  S
Zr145       O170   2.438       .  S
Zr145       O164   2.388       .  S
Zr145       O172   2.369       .  S
Zr145       O160   2.393       .  S
Zr145       O151   2.384       .  S
Zr145       O152   2.388       .  S
Zr145       O153   2.373       .  S
Zr145       O154   2.387       .  S
Zr146       O165   2.437       .  S
Zr146       O158   2.435       .  S
Zr146       O159   2.521       .  S
Zr146       O152   2.410       .  S
Zr146       O153   2.396       .  S
Zr147       O149   2.435       .  S
Zr147       O171   2.435       .  S
Zr147       O173   2.527       .  S
Zr147       O151   2.417       .  S
Zr147       O154   2.403       .  S
Zr148       O174   2.434       .  S
Zr148       O175   2.436       .  S
Zr148       O150   2.439       .  S
Zr148       O151   2.385       .  S
Zr148       O152   2.377       .  S
O149        H186   0.990       .  S
O150        H181   0.990       .  S
O150        H195   0.990       .  S
O152        H178   0.967       .  S
O153       Zr163   2.363       .  S
O154       Zr163   2.361       .  S
O154        H179   0.966       .  S
C155       C1089   1.457       .  S
C156       C1105   1.505       .  S
C157       C1121   1.505       .  S
O158        H194   0.990       .  S
O159        C161   1.300       .  A
O160        C161   1.273       .  A
C161       C1137   1.507       .  S
O162       Zr163   2.436       .  S
O162        H191   0.990       .  S
Zr163       O166   2.436       .  S
Zr163       O167   2.438       .  S
Zr163       O168   2.420       .  S
O164        C169   1.272       .  A
O165        H182   0.990       .  S
O165        H197   0.990       .  S
O166        H183   0.990       .  S
O167        H187   0.990       .  S
O167        H196   0.990       .  S
O168        C169   1.283       .  A
C169       C1457   1.486       .  S
O170        H189   0.990       .  S
O170        H193   0.990       .  S
O171        H185   0.990       .  S
O171        H192   0.990       .  S
O172        C176   1.274       .  A
O173        C176   1.303       .  A
O174        H184   0.989       .  S
O175        H188   0.990       .  S
C176       C1297   1.485       .  S
Zr199       O200   2.440       .  S
Zr199       O201   2.421       .  S
Zr199       O202   2.367       .  S
Zr199       O205   2.396       .  S
Zr199       O207   2.396       .  S
Zr199       O208   2.396       .  S
Zr199       O209   2.440       .  S
Zr199       O210   2.421       .  S
O200        H256   0.989       .  S
O200        H264   0.989       .  S
O201        C221   1.281       .  A
O202        C223   1.268       .  A
O203       Zr213   2.502       .  S
O203        C222   1.290       .  A
O204       Zr212   2.514       .  S
O204        C223   1.297       .  A
O205        C222   1.267       .  A
O206       Zr214   2.439       .  S
O206        C221   1.283       .  A
O207       Zr212   2.381       .  S
O207       Zr214   2.381       .  S
O208       Zr213   2.434       .  S
O208       Zr214   2.370       .  S
O208        H243   0.965       .  S
O209       Zr212   2.411       .  S
O209       Zr229   2.389       .  S
O209        H246   0.965       .  S
O210       Zr213   2.428       .  S
O210       Zr229   2.387       .  S
Zr211       O236   2.441       .  S
Zr211       O230   2.441       .  S
Zr211       O238   2.388       .  S
Zr211       O226   2.346       .  S
Zr211       O218   2.400       .  S
Zr211       O219   2.327       .  S
Zr211       O220   2.384       .  S
Zr211       O217   2.269       .  S
Zr212       O231   2.437       .  S
Zr212       O224   2.434       .  S
Zr212       O225   2.514       .  S
Zr212       O218   2.424       .  S
Zr212       O219   2.355       .  S
Zr213       O215   2.435       .  S
Zr213       O237   2.434       .  S
Zr213       O239   2.529       .  S
Zr213       O220   2.427       .  S
Zr213       O217   2.334       .  S
Zr214       O240   2.434       .  S
Zr214       O241   2.438       .  S
Zr214       O216   2.437       .  S
Zr214       O218   2.419       .  S
Zr214       O217   2.322       .  S
O215        H252   0.990       .  S
O216        H247   0.990       .  S
O216        H261   0.990       .  S
O218        H244   0.965       .  S
O219       Zr229   2.347       .  S
O220       Zr229   2.371       .  S
O220        H245   0.964       .  S
C221       C1281   1.500       .  S
C222       C1486   1.502       .  S
C223       C1233   1.497       .  S
O224        H260   0.990       .  S
O225        C227   1.297       .  A
O226        C227   1.267       .  A
C227       C1038   1.497       .  S
O228       Zr229   2.437       .  S
O228        H257   0.989       .  S
Zr229       O232   2.433       .  S
Zr229       O233   2.433       .  S
Zr229       O234   2.424       .  S
O230        C235   1.280       .  A
O231        H248   0.990       .  S
O231        H263   0.990       .  S
O232        H249   0.990       .  S
O233        H253   0.990       .  S
O233        H262   0.990       .  S
O234        C235   1.279       .  A
C235       C1054   1.477       .  S
O236        H255   0.989       .  S
O236        H259   0.990       .  S
O237        H251   0.991       .  S
O237        H258   0.990       .  S
O238        C242   1.265       .  A
O239        C242   1.291       .  A
O240        H250   0.990       .  S
O241        H254   0.990       .  S
C242       C1073   1.520       .  S
Zr265       O266   2.441       .  S
Zr265       O267   2.432       .  S
Zr265       O268   2.390       .  S
Zr265       O271   2.394       .  S
Zr265       O273   2.384       .  S
Zr265       O274   2.384       .  S
Zr265       O275   2.413       .  S
Zr265       O276   2.399       .  S
O266        H322   0.988       .  S
O266        H330   0.990       .  S
O267        C287   1.281       .  A
O268        C289   1.267       .  A
O269       Zr279   2.512       .  S
O269        C288   1.290       .  A
O270       Zr278   2.523       .  S
O270        C289   1.297       .  A
O271        C288   1.270       .  A
O272       Zr280   2.439       .  S
O272        C287   1.285       .  A
O273       Zr278   2.408       .  S
O273       Zr280   2.374       .  S
O274       Zr279   2.414       .  S
O274       Zr280   2.358       .  S
O274        H309   0.939       .  S
O275       Zr278   2.414       .  S
O275       Zr295   2.385       .  S
O275        H312   0.965       .  S
O276       Zr279   2.418       .  S
O276       Zr295   2.396       .  S
Zr277       O302   2.443       .  S
Zr277       O296   2.434       .  S
Zr277       O304   2.384       .  S
Zr277       O292   2.379       .  S
Zr277       O283   2.405       .  S
Zr277       O284   2.422       .  S
Zr277       O285   2.372       .  S
Zr277       O286   2.388       .  S
Zr278       O297   2.436       .  S
Zr278       O290   2.435       .  S
Zr278       O291   2.527       .  S
Zr278       O284   2.413       .  S
Zr278       O285   2.399       .  S
Zr279       O281   2.435       .  S
Zr279       O303   2.435       .  S
Zr279       O305   2.503       .  S
Zr279       O283   2.417       .  S
Zr279       O286   2.421       .  S
Zr280       O306   2.437       .  S
Zr280       O307   2.435       .  S
Zr280       O282   2.435       .  S
Zr280       O283   2.402       .  S
Zr280       O284   2.399       .  S
O281        H318   0.990       .  S
O282        H313   0.991       .  S
O282        H327   0.989       .  S
O284        H310   0.967       .  S
O285       Zr295   2.371       .  S
O286       Zr295   2.365       .  S
O286        H311   0.964       .  S
C287        C993   1.508       .  S
C288       C1009   1.519       .  S
C289       C1022   1.512       .  S
O290        H326   0.990       .  S
O291        C293   1.298       .  A
O292        C293   1.269       .  A
C293       C1313   1.502       .  S
O294       Zr295   2.434       .  S
O294        H323   0.990       .  S
Zr295       O298   2.435       .  S
Zr295       O299   2.437       .  S
Zr295       O300   2.412       .  S
O296        C301   1.285       .  A
O297        H314   0.990       .  S
O297        H329   0.990       .  S
O298        H315   0.990       .  S
O299        H319   0.990       .  S
O299        H328   0.990       .  S
O300        C301   1.276       .  A
C301       C1521   1.500       .  S
O302        H321   0.990       .  S
O302        H325   0.990       .  S
O303        H317   0.990       .  S
O303        H324   0.990       .  S
O304        C308   1.265       .  A
O305        C308   1.288       .  A
O306        H316   0.990       .  S
O307        H320   0.990       .  S
C308       C1262   1.504       .  S
C331        N332   1.338       .  A
C331        N336   1.375       .  A
C331       C1198   1.493       .  S
N332        C333   1.341   1_554  A
C333        N334   1.384       .  A
C333        C974   1.523       .  S
N334        C335   1.394   1_556  A
C335        N336   1.379       .  A
C335        C715   1.536       .  S
Zr337       O338   2.444       .  S
Zr337       O339   2.397       .  S
Zr337       O340   2.350       .  S
Zr337       O343   2.365       .  S
Zr337       O346   2.388       .  S
Zr337       O347   2.411       .  S
Zr337       O348   2.385       .  S
Zr337       O345   2.270       .  S
O338        H394   0.988       .  S
O338        H402   0.990       .  S
O339        C359   1.268       .  A
O340        C361   1.257       .  A
O341       Zr351   2.551       .  S
O341        C360   1.308       .  A
O342       Zr350   2.592       .  S
O342        C361   1.310       .  A
O343        C360   1.270       .  A
O344       Zr352   2.400       .  S
O344        C359   1.272       .  A
O345       Zr350   2.290       .  S
O345       Zr352   2.282       .  S
O346       Zr351   2.388       .  S
O346       Zr352   2.381       .  S
O346        H381   0.966       .  S
O347       Zr350   2.415       .  S
O347       Zr367   2.368       .  S
O347        H384   0.966       .  S
O348       Zr351   2.408       .  S
O348       Zr367   2.398       .  S
Zr349       O374   2.444       .  S
Zr349       O368   2.418       .  S
Zr349       O376   2.385       .  S
Zr349       O364   2.359       .  S
Zr349       O355   2.397       .  S
Zr349       O356   2.415       .  S
Zr349       O358   2.388       .  S
Zr349       O357   2.275       .  S
Zr350       O369   2.437       .  S
Zr350       O362   2.437       .  S
Zr350       O363   2.571       .  S
Zr350       O356   2.405       .  S
Zr350       O357   2.308       .  S
Zr351       O353   2.437       .  S
Zr351       O375   2.433       .  S
Zr351       O377   2.521       .  S
Zr351       O355   2.424       .  S
Zr351       O358   2.420       .  S
Zr352       O378   2.434       .  S
Zr352       O379   2.435       .  S
Zr352       O354   2.436       .  S
Zr352       O355   2.388       .  S
Zr352       O356   2.386       .  S
O353        H390   0.990       .  S
O354        H385   0.990       .  S
O354        H399   0.990       .  S
O356        H382   0.966       .  S
O357       Zr367   2.296       .  S
O358       Zr367   2.367       .  S
O358        H383   0.964       .  S
C359       C1342   1.456       .  S
C360        C977   1.492       .  S
C361       C1406   1.530       .  S
O362        H398   0.990       .  S
O363        C365   1.310       .  A
O364        C365   1.265       .  A
C365        C926   1.506       .  S
O366       Zr367   2.437       .  S
O366        H395   0.989       .  S
Zr367       O370   2.435       .  S
Zr367       O371   2.440       .  S
Zr367       O372   2.397       .  S
O368        C373   1.276       .  A
O369        H386   0.990       .  S
O369        H401   0.990       .  S
O370        H387   0.989       .  S
O371        H391   0.991       .  S
O371        H400   0.990       .  S
O372        C373   1.274       .  A
C373        C942   1.455       .  S
O374        H393   0.991       .  S
O374        H397   0.987       .  S
O375        H389   0.990       .  S
O375        H396   0.990       .  S
O376        C380   1.265       .  A
O377        C380   1.289       .  A
O378        H388   0.990       .  S
O379        H392   0.990       .  S
C380        C958   1.514       .  S
Zr403       O404   2.443       .  S
Zr403       O405   2.405       .  S
Zr403       O406   2.379       .  S
Zr403       O409   2.403       .  S
Zr403       O411   2.379       .  S
Zr403       O412   2.385       .  S
Zr403       O413   2.412       .  S
Zr403       O414   2.394       .  S
O404        H460   0.991       .  S
O404        H468   0.991       .  S
O405        C425   1.279       .  A
O406        C427   1.270       .  A
O407       Zr417   2.447       .  S
O407        C426   1.279       .  A
O408       Zr416   2.482       .  S
O408        C427   1.290       .  A
O409        C426   1.272       .  A
O410       Zr418   2.409       .  S
O410        C425   1.278       .  A
O411       Zr416   2.391       .  S
O411       Zr418   2.380       .  S
O412       Zr417   2.411       .  S
O412       Zr418   2.371       .  S
O412        H447   0.967       .  S
O413       Zr416   2.402       .  S
O413       Zr433   2.386       .  S
O413        H450   0.965       .  S
O414       Zr417   2.420       .  S
O414       Zr433   2.391       .  S
Zr415       O440   2.447       .  S
Zr415       O434   2.430       .  S
Zr415       O442   2.417       .  S
Zr415       O430   2.392       .  S
Zr415       O421   2.392       .  S
Zr415       O422   2.407       .  S
Zr415       O423   2.389       .  S
Zr415       O424   2.388       .  S
Zr416       O435   2.435       .  S
Zr416       O428   2.434       .  S
Zr416       O429   2.475       .  S
Zr416       O422   2.403       .  S
Zr416       O423   2.397       .  S
Zr417       O419   2.435       .  S
Zr417       O441   2.434       .  S
Zr417       O443   2.460       .  S
Zr417       O421   2.407       .  S
Zr417       O424   2.401       .  S
Zr418       O444   2.436       .  S
Zr418       O445   2.437       .  S
Zr418       O420   2.435       .  S
Zr418       O421   2.388       .  S
Zr418       O422   2.383       .  S
O419        H456   0.990       .  S
O420        H451   0.990       .  S
O420        H465   0.990       .  S
O422        H448   0.966       .  S
O423       Zr433   2.374       .  S
O424       Zr433   2.358       .  S
O424        H449   0.958       .  S
C425       C1329   1.463       .  S
C426       C1377   1.495       .  S
C427       C1473   1.468       .  S
O428        H464   0.990       .  S
O429        C431   1.287       .  A
O430        C431   1.267       .  A
C431        C894   1.495       .  S
O432       Zr433   2.439       .  S
O432        H461   0.990       .  S
Zr433       O436   2.435       .  S
Zr433       O437   2.438       .  S
Zr433       O438   2.412       .  S
O434        C439   1.281       .  A
O435        H452   0.990       .  S
O435        H467   0.990       .  S
O436        H453   0.990       .  S
O437        H457   0.990       .  S
O437        H466   0.990       .  S
O438        C439   1.279       .  A
C439        C913   1.459       .  S
O440        H459   0.990       .  S
O440        H463   0.988       .  S
O441        H455   0.990       .  S
O441        H462   0.990       .  S
O442        C446   1.274       .  A
O443        C446   1.281       .  A
O444        H454   0.990       .  S
O445        H458   0.990       .  S
C446        C881   1.493       .  S
Zr469       O470   2.443       .  S
Zr469       O471   2.445       .  S
Zr469       O472   2.378       .  S
Zr469       O475   2.387       .  S
Zr469       O478   2.397       .  S
Zr469       O479   2.416       .  S
Zr469       O480   2.398       .  S
Zr469       O477   2.268       .  S
O470        H526   0.987       .  S
O470        H534   0.990       .  S
O471        C491   1.286       .  A
O472        C493   1.268       .  A
O473       Zr483   2.478       .  S
O473        C492   1.281       .  A
O474       Zr482   2.528       .  S
O474        C493   1.299       .  A
O475        C492   1.262       .  A
O476       Zr484   2.395       .  S
O476        C491   1.274       .  A
O477       Zr482   2.306       .  S
O477       Zr484   2.297       .  S
O478       Zr483   2.433       .  S
O478       Zr484   2.370       .  S
O478        H513   0.964       .  S
O479       Zr482   2.399       .  S
O479       Zr499   2.397       .  S
O479        H516   0.965       .  S
O480       Zr483   2.427       .  S
O480       Zr499   2.390       .  S
Zr481       O506   2.433       .  S
Zr481       O500   2.403       .  S
Zr481       O508   2.353       .  S
Zr481       O496   2.354       .  S
Zr481       O487   2.388       .  S
Zr481       O488   2.409       .  S
Zr481       O489   2.377       .  S
Zr481       O490   2.375       .  S
Zr482       O501   2.436       .  S
Zr482       O494   2.436       .  S
Zr482       O495   2.533       .  S
Zr482       O488   2.408       .  S
Zr482       O489   2.392       .  S
Zr483       O485   2.435       .  S
Zr483       O507   2.434       .  S
Zr483       O509   2.536       .  S
Zr483       O487   2.400       .  S
Zr483       O490   2.376       .  S
Zr484       O510   2.437       .  S
Zr484       O511   2.438       .  S
Zr484       O486   2.440       .  S
Zr484       O487   2.390       .  S
Zr484       O488   2.373       .  S
O485        H522   0.990       .  S
O486        H517   0.991       .  S
O486        H531   0.990       .  S
O488        H514   0.965       .  S
O489       Zr499   2.370       .  S
O490       Zr499   2.372       .  S
O490        H515   0.966       .  S
C491       C1441   1.463       .  S
C492       C1390   1.487       .  S
C493       C1505   1.495       .  S
O494        H530   0.990       .  S
O495        C497   1.297       .  A
O496        C497   1.257       .  A
C497        C846   1.490       .  S
O498       Zr499   2.436       .  S
O498        H527   0.990       .  S
Zr499       O502   2.435       .  S
Zr499       O503   2.436       .  S
Zr499       O504   2.422       .  S
O500        C505   1.278       .  A
O501        H518   0.990       .  S
O501        H533   0.990       .  S
O502        H519   0.990       .  S
O503        H523   0.990       .  S
O503        H532   0.990       .  S
O504        C505   1.279       .  A
C505        C862   1.479       .  S
O506        H525   0.990       .  S
O506        H529   0.990       .  S
O507        H521   0.990       .  S
O507        H528   0.990       .  S
O508        C512   1.269       .  A
O509        C512   1.305       .  A
O510        H520   0.990       .  S
O511        H524   0.990       .  S
C512        C830   1.483       .  S
Zr535       O536   2.438       .  S
Zr535       O537   2.393       .  S
Zr535       O538   2.365       .  S
Zr535       O541   2.377       .  S
Zr535       O543   2.370       .  S
Zr535       O544   2.386       .  S
Zr535       O545   2.394       .  S
Zr535       O546   2.386       .  S
O536        H592   0.991       .  S
O536        H600   0.989       .  S
O537        C557   1.280       .  A
O538        C559   1.268       .  A
O539       Zr549   2.560       .  S
O539        C558   1.306       .  A
O540       Zr548   2.549       .  S
O540        C559   1.305       .  A
O541        C558   1.265       .  A
O542       Zr550   2.454       .  S
O542        C557   1.286       .  A
O543       Zr548   2.391       .  S
O543       Zr550   2.370       .  S
O544       Zr549   2.388       .  S
O544       Zr550   2.357       .  S
O544        H579   0.964       .  S
O545       Zr548   2.405       .  S
O545       Zr565   2.390       .  S
O545        H582   0.965       .  S
O546       Zr549   2.398       .  S
O546       Zr565   2.393       .  S
Zr547       O572   2.447       .  S
Zr547       O566   2.443       .  S
Zr547       O574   2.384       .  S
Zr547       O562   2.381       .  S
Zr547       O553   2.402       .  S
Zr547       O554   2.422       .  S
Zr547       O555   2.380       .  S
Zr547       O556   2.388       .  S
Zr548       O567   2.435       .  S
Zr548       O560   2.434       .  S
Zr548       O561   2.536       .  S
Zr548       O554   2.418       .  S
Zr548       O555   2.402       .  S
Zr549       O551   2.434       .  S
Zr549       O573   2.436       .  S
Zr549       O575   2.527       .  S
Zr549       O553   2.414       .  S
Zr549       O556   2.416       .  S
Zr550       O576   2.435       .  S
Zr550       O577   2.435       .  S
Zr550       O552   2.437       .  S
Zr550       O553   2.409       .  S
Zr550       O554   2.398       .  S
O551        H588   0.990       .  S
O552        H583   0.990       .  S
O552        H597   0.990       .  S
O554        H580   0.967       .  S
O555       Zr565   2.377       .  S
O556       Zr565   2.387       .  S
O556        H581   0.950       .  S
C557       C1361   1.493       .  S
C558       C1425   1.518       .  S
C559       C1537   1.500       .  S
O560        H596   0.990       .  S
O561        C563   1.300       .  A
O562        C563   1.266       .  A
C563        C798   1.520       .  S
O564       Zr565   2.437       .  S
O564        H593   0.990       .  S
Zr565       O568   2.435       .  S
Zr565       O569   2.434       .  S
Zr565       O570   2.422       .  S
O566        C571   1.285       .  A
O567        H584   0.990       .  S
O567        H599   0.990       .  S
O568        H585   0.990       .  S
O569        H589   0.990       .  S
O569        H598   0.989       .  S
O570        C571   1.280       .  A
C571        C814   1.497       .  S
O572        H591   0.991       .  S
O572        H595   0.990       .  S
O573        H587   0.990       .  S
O573        H594   0.990       .  S
O574        C578   1.271       .  A
O575        C578   1.300       .  A
O576        H586   0.990       .  S
O577        H590   0.990       .  S
C578        C782   1.497       .  S
C601        N602   1.343       .  A
C601        N606   1.363       .  A
C601        C817   1.493       .  S
N602        C603   1.343       .  A
C603        N604   1.368       .  A
C603        C897   1.485       .  S
N604        C605   1.372       .  A
C605        N606   1.368       .  A
C605        C738   1.491       .  S
C607        N608   1.342       .  A
C607        N612   1.360       .  A
C607        C945   1.449       .  S
N608        C609   1.343       .  A
C609        N610   1.354       .  A
C609        C910   1.448       .  S
N610        C611   1.357       .  A
C611        N612   1.358       .  A
C611        C740   1.454       .  S
C613        N614   1.379       .  A
C613        N618   1.331       .  A
C613        C849   1.483       .  S
N614        C615   1.385       .  A
C615        N616   1.392       .  A
C615        C739   1.544       .  S
N616        C617   1.384       .  A
C617        N618   1.330       .  A
C617        C961   1.496       .  S
C619        N620   1.347       .  A
C619        N624   1.354       .  A
C619        C865   1.473       .  S
N620        C621   1.349       .  A
C621        N622   1.376       .  A
C621        C741   1.488       .  S
N622        C623   1.380       .  A
C623        N624   1.358       .  A
C623        C801   1.518       .  S
C625        N626   1.378       .  A
C625        N630   1.346       .  A
C625       C1070   1.508       .  S
N626        C627   1.381       .  A
C627        N628   1.384       .  A
C627        C769   1.533       .  S
N628        C629   1.379       .  A
C629        N630   1.347       .  A
C629       C1166   1.504       .  S
C631        N632   1.354       .  A
C631        N636   1.350       .  A
C631       C1057   1.471       .  S
N632        C633   1.358       .  A
C633        N634   1.375       .  A
C633        C776   1.483       .  S
N634        C635   1.375       .  A
C635        N636   1.351       .  A
C635       C1025   1.489       .  S
C637        N638   1.382       .  A
C637        N642   1.345       .  A
C637       C1006   1.496       .  S
N638        C639   1.384       .  A
C639        N640   1.372       .  A
C639        C770   1.522       .  S
N640        C641   1.368       .  A
C641        N642   1.344       .  A
C641       C1118   1.486       .  S
C643        N644   1.347       .  A
C643        N648   1.358       .  A
C643       C1182   1.487       .  S
N644        C645   1.352       .  A
C645        N646   1.381       .  A
C645        C775   1.498       .  S
N646        C647   1.385       .  A
C647        N648   1.360       .  A
C647       C1102   1.519       .  S
C649        N650   1.360       .  A
C649        N654   1.362       .  A
C649        C990   1.488       .  S
N650        C651   1.360       .  A
C651        N652   1.374       .  A
C651        C785   1.515       .  S
N652        C653   1.372       .  A
C653        N654   1.356       .  A
C653        C773   1.493       .  S
C655        N656   1.341       .  A
C655        N660   1.371       .  A
C655       C1041   1.493       .  S
N656        C657   1.345       .  A
C657        N658   1.375       .  A
C657        C833   1.498       .  S
N658        C659   1.381       .  A
C659        N660   1.375       .  A
C659        C772   1.515       .  S
C661        N662   1.348       .  A
C661        N666   1.349       .  A
C661       C1086   1.450       .  S
N662        C663   1.352       .  A
C663        N664   1.364       .  A
C663        C878   1.476       .  S
N664        C665   1.361       .  A
C665        N666   1.352       .  A
C665        C774   1.452       .  S
C667        N668   1.377       .  A
C667        N672   1.349       .  A
C667       C1153   1.499       .  S
N668        C669   1.379       .  A
C669        N670   1.381       .  A
C669        C771   1.526       .  S
N670        C671   1.376       .  A
C671        N672   1.350       .  A
C671        C929   1.530       .  S
O673       Zr709   2.509   1_566  S
O673        C684   1.307       .  A
O674       Zr708   2.399   1_565  S
O674        C685   1.282       .  A
O675       Zr681   2.454       .  S
O675        C686   1.293       .  A
O676       Zr681   2.472   1_554  S
O676        C687   1.296       .  A
O677       Zr711   2.543       .  S
O677        C687   1.311       .  A
O678       Zr710   2.460   1_565  S
O678        C686   1.296       .  A
O679       Zr681   2.482   1_455  S
O679        C685   1.298       .  A
O680       Zr681   2.456       .  S
O680        C684   1.293       .  A
Zr681       O682   2.353   1_556  S
Zr681       O683   2.367       .  S
Zr681       O691   2.370   1_556  S
Zr681       O689   2.345       .  S
O682       Zr708   2.361   1_664  S
O682       Zr711   2.359       .  S
O683       Zr709   2.341   1_566  S
O683       Zr710   2.340   1_565  S
H688        O689   0.965       .  S
O689       Zr708   2.345   1_665  S
O689       Zr710   2.363   1_565  S
H690        O691   0.966       .  S
O691       Zr709   2.365   1_565  S
O691       Zr711   2.356       .  S
O692       Zr708   2.437       .  S
O692        C715   1.289   1_556  A
O693       Zr709   2.499       .  S
O693        C716   1.305       .  A
O694       Zr710   2.410       .  S
O694        C717   1.285   1_655  A
O695       Zr711   2.490       .  S
O695        C718   1.300   1_665  A
O696       Zr711   2.501       .  S
O696        C719   1.303       .  A
O697       Zr710   2.480       .  S
O697        C720   1.300       .  A
O698       Zr712   2.569   1_556  S
O698        C721   1.318       .  A
O699       Zr712   2.563       .  S
O699        C722   1.319       .  A
O700       Zr710   2.486       .  S
O700        C721   1.300       .  A
O701       Zr711   2.481   1_545  S
O701        C722   1.300       .  A
O702       Zr708   2.453       .  S
O702        C717   1.293       .  A
O703       Zr709   2.482   1_556  S
O703        C720   1.297       .  A
O704       Zr709   2.469   1_565  S
O704        C719   1.297       .  A
O705       Zr708   2.463   1_554  S
O705        C718   1.297       .  A
O706       Zr712   2.586       .  S
O706        C715   1.321   1_655  A
O707       Zr712   2.524       .  S
O707        C716   1.310       .  A
Zr708       O714   2.339   1_455  S
Zr708       O726   2.347   1_456  S
Zr709       O713   2.376       .  S
Zr709       O724   2.379   1_554  S
Zr710       O714   2.359       .  S
Zr710       O724   2.341       .  S
Zr711       O713   2.382   1_565  S
Zr711       O726   2.403   1_565  S
Zr712       O713   2.406       .  S
Zr712       O714   2.344   1_554  S
Zr712       O726   2.378       .  S
Zr712       O724   2.402   1_554  S
H723        O724   0.965       .  S
H725        O726   0.966       .  S
O727       Zr763   2.475       .  S
O727        C738   1.297       .  A
O728       Zr762   2.582       .  S
O728        C739   1.320       .  A
O729       Zr735   2.443       .  S
O729        C740   1.292       .  A
O730       Zr735   2.472       .  S
O730        C741   1.299       .  A
O731       Zr765   2.467       .  S
O731        C741   1.294       .  A
O732       Zr764   2.428       .  S
O732        C740   1.288       .  A
O733       Zr735   2.475       .  S
O733        C739   1.298       .  A
O734       Zr735   2.464       .  S
O734        C738   1.296       .  A
Zr735       O736   2.349       .  S
Zr735       O737   2.351       .  S
Zr735       O745   2.345       .  S
Zr735       O743   2.364       .  S
O736       Zr762   2.385       .  S
O736       Zr765   2.375       .  S
O737       Zr763   2.335       .  S
O737       Zr764   2.351       .  S
H742        O743   0.965       .  S
O743       Zr762   2.350       .  S
O743       Zr764   2.350       .  S
H744        O745   0.965       .  S
O745       Zr763   2.354       .  S
O745       Zr765   2.350       .  S
O746       Zr762   2.559       .  S
O746        C769   1.318       .  A
O747       Zr763   2.466       .  S
O747        C770   1.296       .  A
O748       Zr764   2.457       .  S
O748        C771   1.294       .  A
O749       Zr765   2.498       .  S
O749        C772   1.303       .  A
O750       Zr765   2.517       .  S
O750        C773   1.307       .  A
O751       Zr764   2.403       .  S
O751        C774   1.283       .  A
O752       Zr766   2.488       .  S
O752        C775   1.298       .  A
O753       Zr766   2.461       .  S
O753        C776   1.295       .  A
O754       Zr764   2.467       .  S
O754        C775   1.298       .  A
O755       Zr765   2.469       .  S
O755        C776   1.297       .  A
O756       Zr762   2.552       .  S
O756        C771   1.313       .  A
O757       Zr763   2.463       .  S
O757        C774   1.295       .  A
O758       Zr763   2.428       .  S
O758        C773   1.288       .  A
O759       Zr762   2.504       .  S
O759        C772   1.306       .  A
O760       Zr766   2.483       .  S
O760        C769   1.301       .  A
O761       Zr766   2.539       .  S
O761        C770   1.310       .  A
Zr762       O768   2.378       .  S
Zr762       O780   2.411       .  S
Zr763       O767   2.363       .  S
Zr763       O778   2.354       .  S
Zr764       O768   2.335       .  S
Zr764       O778   2.355       .  S
Zr765       O767   2.356       .  S
Zr765       O780   2.379       .  S
Zr766       O767   2.352       .  S
Zr766       O768   2.388       .  S
Zr766       O780   2.390       .  S
Zr766       O778   2.350       .  S
H777        O778   0.966       .  S
H779        O780   0.966       .  S
C781        C782   1.404       .  A
C781        C786   1.418       .  A
C781        H788   1.084       .  S
C782        C783   1.424       .  A
C783        C784   1.411       .  A
C783        C790   1.511       .  S
C784        C785   1.402       .  A
C784        H789   1.084       .  S
C785        C786   1.430       .  A
C786        C787   1.517       .  S
C787        F791   1.384       .  S
C787        F792   1.382       .  S
C787        F793   1.380       .  S
C790        F794   1.378       .  S
C790        F795   1.381       .  S
C790        F796   1.383       .  S
C797        C798   1.421       .  A
C797        C802   1.418       .  A
C797        H804   1.082       .  S
C798        C799   1.418       .  A
C799        C800   1.419       .  A
C799        C806   1.517       .  S
C800        C801   1.418       .  A
C800        H805   1.082       .  S
C801        C802   1.415       .  A
C802        C803   1.518       .  S
C803        F807   1.384       .  S
C803        F808   1.383       .  S
C803        F809   1.384       .  S
C806        F810   1.383       .  S
C806        F811   1.383       .  S
C806        F812   1.384       .  S
C813        C814   1.411       .  A
C813        C818   1.407       .  A
C813        H820   1.085       .  S
C814        C815   1.425       .  A
C815        C816   1.407       .  A
C815        C822   1.518       .  S
C816        C817   1.407       .  A
C816        H821   1.083       .  S
C817        C818   1.402       .  A
C818        C819   1.502       .  S
C819        F823   1.378       .  S
C819        F824   1.381       .  S
C819        F825   1.383       .  S
C822        F826   1.380       .  S
C822        F827   1.383       .  S
C822        F828   1.385       .  S
C829        C830   1.401       .  A
C829        C834   1.402       .  A
C829        H836   1.086       .  S
C830        C831   1.426       .  A
C831        C832   1.424       .  A
C831        C838   1.515       .  S
C832        C833   1.406       .  A
C832        H837   1.082       .  S
C833        C834   1.423       .  A
C834        C835   1.524       .  S
C835        F839   1.384       .  S
C835        F840   1.382       .  S
C835        F841   1.384       .  S
C838        F842   1.382       .  S
C838        F843   1.382       .  S
C838        F844   1.385       .  S
C845        C846   1.404       .  A
C845        C850   1.419       .  A
C845        H852   1.084       .  S
C846        C847   1.419       .  A
C847        C848   1.409       .  A
C847        C854   1.519       .  S
C848        C849   1.405       .  A
C848        H853   1.085       .  S
C849        C850   1.429       .  A
C850        C851   1.518       .  S
C851        F855   1.380       .  S
C851        F856   1.383       .  S
C851        F857   1.383       .  S
C854        F858   1.384       .  S
C854        F859   1.382       .  S
C854        F860   1.384       .  S
C861        C862   1.407       .  A
C861        C866   1.398       .  A
C861        H868   1.082       .  S
C862        C863   1.418       .  A
C863        C864   1.403       .  A
C863        C870   1.518       .  S
C864        C865   1.403       .  A
C864        H869   1.084       .  S
C865        C866   1.419       .  A
C866        C867   1.523       .  S
C867        F871   1.385       .  S
C867        F872   1.381       .  S
C867        F873   1.383       .  S
C870        F874   1.382       .  S
C870        F875   1.384       .  S
C870        F876   1.384       .  S
C877        C878   1.411       .  A
C877        C882   1.414       .  A
C877        H884   1.083       .  S
C878        C879   1.410       .  A
C879        C880   1.396       .  A
C879        C886   1.522       .  S
C880        C881   1.403       .  A
C880        H885   1.066       .  S
C881        C882   1.415       .  A
C882        C883   1.515       .  S
C883        F887   1.385       .  S
C883        F888   1.383       .  S
C883        F889   1.382       .  S
C886        F890   1.383       .  S
C886        F891   1.382       .  S
C886        F892   1.383       .  S
C893        C894   1.416       .  A
C893        C898   1.409       .  A
C893        H900   1.081       .  S
C894        C895   1.417       .  A
C895        C896   1.405       .  A
C895        C902   1.520       .  S
C896        C897   1.411       .  A
C896        H901   1.082       .  S
C897        C898   1.410       .  A
C898        C899   1.519       .  S
C899        F903   1.385       .  S
C899        F904   1.381       .  S
C899        F905   1.383       .  S
C902        F906   1.382       .  S
C902        F907   1.384       .  S
C902        F908   1.385       .  S
C909        C910   1.395       .  A
C909        C914   1.397       .  A
C909        H916   1.084       .  S
C910        C911   1.412       .  A
C911        C912   1.401       .  A
C911        C918   1.519       .  S
C912        C913   1.400       .  A
C912        H917   1.083       .  S
C913        C914   1.419       .  A
C914        C915   1.519       .  S
C915        F919   1.385       .  S
C915        F920   1.374       .  S
C915        F921   1.381       .  S
C918        F922   1.381       .  S
C918        F923   1.384       .  S
C918        F924   1.380       .  S
C925        C926   1.416       .  A
C925        C930   1.424       .  A
C925        H932   1.080       .  S
C926        C927   1.411       .  A
C927        C928   1.419       .  A
C927        C934   1.515       .  S
C928        C929   1.423       .  A
C928        H933   1.080       .  S
C929        C930   1.422       .  A
C930        C931   1.517       .  S
C931        F935   1.382       .  S
C931        F936   1.382       .  S
C931        F937   1.384       .  S
C934        F938   1.382       .  S
C934        F939   1.383       .  S
C934        F940   1.385       .  S
C941        C942   1.400       .  A
C941        C946   1.400       .  A
C941        H948   1.084       .  S
C942        C943   1.409       .  A
C943        C944   1.395       .  A
C943        C950   1.508       .  S
C944        C945   1.396       .  A
C944        H949   1.084       .  S
C945        C946   1.414       .  A
C946        C947   1.519       .  S
C947        F951   1.384       .  S
C947        F952   1.383       .  S
C947        F953   1.383       .  S
C950        F954   1.372       .  S
C950        F955   1.384       .  S
C950        F956   1.384       .  S
C957        C958   1.412       .  A
C957        C962   1.414       .  A
C957        H964   1.084       .  S
C958        C959   1.417       .  A
C959        C960   1.427       .  A
C959        C966   1.519       .  S
C960        C961   1.419       .  A
C960        H965   1.083       .  S
C961        C962   1.420       .  A
C962        C963   1.516       .  S
C963        F967   1.384       .  S
C963        F968   1.383       .  S
C963        F969   1.381       .  S
C966        F970   1.383       .  S
C966        F971   1.379       .  S
C966        F972   1.385       .  S
C973        C974   1.421       .  A
C973        C978   1.407       .  A
C973        H980   1.083       .  S
C974        C975   1.430       .  A
C975        C976   1.428       .  A
C975        C982   1.516       .  S
C976        C977   1.414       .  A
C976        H981   1.084       .  S
C977        C978   1.407       .  A
C978        C979   1.520       .  S
C979        F983   1.385       .  S
C979        F984   1.379       .  S
C979        F985   1.383       .  S
C982        F986   1.379       .  S
C982        F987   1.383       .  S
C982        F988   1.385       .  S
C989        C990   1.400       .  A
C989        C994   1.404       .  A
C989        H996   1.083       .  S
C990        C991   1.419       .  A
C991        C992   1.410       .  A
C991        C998   1.518       .  S
C992        C993   1.411       .  A
C992        H997   1.084       .  S
C993        C994   1.428       .  A
C994        C995   1.514       .  S
C995        F999   1.385       .  S
C995       F1000   1.373       .  S
C995       F1001   1.373       .  S
C998       F1002   1.381       .  S
C998       F1003   1.381       .  S
C998       F1004   1.384       .  S
C1005      C1006   1.410       .  A
C1005      C1010   1.425       .  A
C1005      H1012   1.083       .  S
C1006      C1007   1.417       .  A
C1007      C1008   1.412       .  A
C1007      C1014   1.518       .  S
C1008      C1009   1.412       .  A
C1008      H1013   1.082       .  S
C1009      C1010   1.427       .  A
C1010      C1011   1.517       .  S
C1011      F1015   1.385       .  S
C1011      F1016   1.383       .  S
C1011      F1017   1.378       .  S
C1014      F1018   1.382       .  S
C1014      F1019   1.382       .  S
C1014      F1020   1.385       .  S
C1021      C1022   1.415       .  A
C1021      C1026   1.409       .  A
C1021      H1028   1.083       .  S
C1022      C1023   1.424       .  A
C1023      C1024   1.423       .  A
C1023      C1030   1.513       .  S
C1024      C1025   1.408       .  A
C1024      H1029   1.083       .  S
C1025      C1026   1.412       .  A
C1026      C1027   1.521       .  S
C1027      F1031   1.384       .  S
C1027      F1032   1.383       .  S
C1027      F1033   1.383       .  S
C1030      F1034   1.382       .  S
C1030      F1035   1.383       .  S
C1030      F1036   1.384       .  S
C1037      C1038   1.416       .  A
C1037      C1042   1.409       .  A
C1037      H1044   1.083       .  S
C1038      C1039   1.412       .  A
C1039      C1040   1.414       .  A
C1039      C1046   1.514       .  S
C1040      C1041   1.415       .  A
C1040      H1045   1.083       .  S
C1041      C1042   1.411       .  A
C1042      C1043   1.519       .  S
C1043      F1047   1.385       .  S
C1043      F1048   1.382       .  S
C1043      F1049   1.383       .  S
C1046      F1050   1.385       .  S
C1046      F1051   1.381       .  S
C1046      F1052   1.383       .  S
C1053      C1054   1.406       .  A
C1053      C1058   1.412       .  A
C1053      H1060   1.083       .  S
C1054      C1055   1.418       .  A
C1055      C1056   1.401       .  A
C1055      C1062   1.517       .  S
C1056      C1057   1.398       .  A
C1056      H1061   1.083       .  S
C1057      C1058   1.412       .  A
C1058      C1059   1.516       .  S
C1059      F1063   1.376       .  S
C1059      F1064   1.382       .  S
C1059      F1065   1.384       .  S
C1062      F1066   1.377       .  S
C1062      F1067   1.381       .  S
C1062      F1068   1.385       .  S
C1069      C1070   1.420       .  A
C1069      C1074   1.426       .  A
C1069      H1076   1.083       .  S
C1070      C1071   1.411       .  A
C1071      C1072   1.410       .  A
C1071      C1078   1.515       .  S
C1072      C1073   1.414       .  A
C1072      H1077   1.078       .  S
C1073      C1074   1.419       .  A
C1074      C1075   1.516       .  S
C1075      F1079   1.385       .  S
C1075      F1080   1.383       .  S
C1075      F1081   1.382       .  S
C1078      F1082   1.383       .  S
C1078      F1083   1.383       .  S
C1078      F1084   1.384       .  S
C1085      C1086   1.397       .  A
C1085      C1090   1.400       .  A
C1085      H1092   1.084       .  S
C1086      C1087   1.411       .  A
C1087      C1088   1.397       .  A
C1087      C1094   1.521       .  S
C1088      C1089   1.398       .  A
C1088      H1093   1.080       .  S
C1089      C1090   1.415       .  A
C1090      C1091   1.517       .  S
C1091      F1095   1.384       .  S
C1091      F1096   1.381       .  S
C1091      F1097   1.382       .  S
C1094      F1098   1.382       .  S
C1094      F1099   1.383       .  S
C1094      F1100   1.382       .  S
C1101      C1102   1.405       .  A
C1101      C1106   1.419       .  A
C1101      H1108   1.084       .  S
C1102      C1103   1.434       .  A
C1103      C1104   1.420       .  A
C1103      C1110   1.517       .  S
C1104      C1105   1.399       .  A
C1104      H1109   1.083       .  S
C1105      C1106   1.429       .  A
C1106      C1107   1.517       .  S
C1107      F1111   1.384       .  S
C1107      F1112   1.382       .  S
C1107      F1113   1.384       .  S
C1110      F1114   1.383       .  S
C1110      F1115   1.379       .  S
C1110      F1116   1.384       .  S
C1117      C1118   1.418       .  A
C1117      C1122   1.423       .  A
C1117      H1124   1.083       .  S
C1118      C1119   1.409       .  A
C1119      C1120   1.401       .  A
C1119      C1126   1.524       .  S
C1120      C1121   1.413       .  A
C1120      H1125   1.072       .  S
C1121      C1122   1.412       .  A
C1122      C1123   1.513       .  S
C1123      F1127   1.384       .  S
C1123      F1128   1.383       .  S
C1123      F1129   1.384       .  S
C1126      F1130   1.382       .  S
C1126      F1131   1.383       .  S
C1126      F1132   1.385       .  S
C1133      C1134   1.410       .  A
C1133      C1138   1.415       .  A
C1133      H1140   1.083       .  S
C1134      C1135   1.414       .  A
C1135      C1136   1.418       .  A
C1135      C1142   1.516       .  S
C1136      C1137   1.417       .  A
C1136      H1141   1.083       .  S
C1137      C1138   1.420       .  A
C1138      C1139   1.517       .  S
C1139      F1143   1.385       .  S
C1139      F1144   1.380       .  S
C1139      F1145   1.383       .  S
C1142      F1146   1.383       .  S
C1142      F1147   1.384       .  S
C1142      F1148   1.383       .  S
C1149      C1150   1.408       .  A
C1149      C1154   1.418       .  A
C1149      H1156   1.082       .  S
C1150      C1151   1.428       .  A
C1151      C1152   1.419       .  A
C1151      C1158   1.517       .  S
C1152      C1153   1.403       .  A
C1152      H1157   1.084       .  S
C1153      C1154   1.423       .  A
C1154      C1155   1.520       .  S
C1155      F1159   1.384       .  S
C1155      F1160   1.382       .  S
C1155      F1161   1.381       .  S
C1158      F1162   1.382       .  S
C1158      F1163   1.383       .  S
C1158      F1164   1.384       .  S
C1165      C1166   1.407       .  A
C1165      C1170   1.404       .  A
C1165      H1172   1.086       .  S
C1166      C1167   1.427       .  A
C1167      C1168   1.428       .  A
C1167      C1174   1.516       .  S
C1168      C1169   1.410       .  A
C1168      H1173   1.083       .  S
C1169      C1170   1.419       .  A
C1170      C1171   1.520       .  S
C1171      F1175   1.384       .  S
C1171      F1176   1.384       .  S
C1171      F1177   1.383       .  S
C1174      F1178   1.383       .  S
C1174      F1179   1.376       .  S
C1174      F1180   1.385       .  S
C1181      C1182   1.402       .  A
C1181      C1186   1.406       .  A
C1181      H1188   1.079       .  S
C1182      C1183   1.421       .  A
C1183      C1184   1.404       .  A
C1183      C1190   1.524       .  S
C1184      C1185   1.410       .  A
C1184      H1189   1.081       .  S
C1185      C1186   1.422       .  A
C1186      C1187   1.519       .  S
C1187      F1191   1.385       .  S
C1187      F1192   1.383       .  S
C1187      F1193   1.382       .  S
C1190      F1194   1.382       .  S
C1190      F1195   1.376       .  S
C1190      F1196   1.385       .  S
C1197      C1198   1.412       .  A
C1197      C1202   1.414       .  A
C1197      H1204   1.083       .  S
C1198      C1199   1.413       .  A
C1199      C1200   1.420       .  A
C1199      C1206   1.517       .  S
C1200      C1201   1.420       .  A
C1200      H1205   1.083       .  S
C1201      C1202   1.419       .  A
C1202      C1203   1.517       .  S
C1203      F1207   1.384       .  S
C1203      F1208   1.380       .  S
C1203      F1209   1.382       .  S
C1206      F1210   1.384       .  S
C1206      F1211   1.383       .  S
C1206      F1212   1.383       .  S
C1213      C1214   1.410       .  A
C1213      C1218   1.405       .  A
C1213      H1220   1.083       .  S
C1214      C1215   1.432       .  A
C1215      C1216   1.402       .  A
C1215      C1222   1.522       .  S
C1216      C1217   1.397       .  A
C1216      H1221   1.081       .  S
C1217      C1218   1.418       .  A
C1218      C1219   1.520       .  S
C1219      F1223   1.385       .  S
C1219      F1224   1.384       .  S
C1219      F1225   1.383       .  S
C1222      F1226   1.366       .  S
C1222      F1227   1.376       .  S
C1222      F1228   1.385       .  S
C1229      C1230   1.400       .  A
C1229      C1234   1.404       .  A
C1229      H1236   1.085       .  S
C1230      C1231   1.423       .  A
C1231      C1232   1.422       .  A
C1231      C1238   1.517       .  S
C1232      C1233   1.408       .  A
C1232      H1237   1.083       .  S
C1233      C1234   1.423       .  A
C1234      C1235   1.521       .  S
C1235      F1239   1.384       .  S
C1235      F1240   1.384       .  S
C1235      F1241   1.382       .  S
C1238      F1242   1.383       .  S
C1238      F1243   1.378       .  S
C1238      F1244   1.384       .  S
C1245      C1246   1.424       .  A
C1245      C1250   1.412   1_655  A
C1245      H1252   1.081       .  S
C1246      C1247   1.424   1_655  A
C1247      C1248   1.433       .  A
C1247      C1254   1.514       .  S
C1248      C1249   1.418       .  A
C1248      H1253   1.083       .  S
C1249      C1250   1.409       .  A
C1250      C1251   1.518   1_455  S
C1251      F1255   1.385       .  S
C1251      F1256   1.382   1_655  S
C1251      F1257   1.383   1_655  S
C1254      F1258   1.379       .  S
C1254      F1259   1.383       .  S
C1254      F1260   1.385       .  S
C1261      C1262   1.408       .  A
C1261      C1266   1.422       .  A
C1261      H1268   1.083       .  S
C1262      C1263   1.421       .  A
C1263      C1264   1.418       .  A
C1263      C1270   1.520       .  S
C1264      C1265   1.409       .  A
C1264      H1269   1.083       .  S
C1265      C1266   1.423       .  A
C1266      C1267   1.515       .  S
C1267      F1271   1.385       .  S
C1267      F1272   1.380       .  S
C1267      F1273   1.383       .  S
C1270      F1274   1.382       .  S
C1270      F1275   1.385       .  S
C1270      F1276   1.384       .  S
C1277      C1278   1.406       .  A
C1277      C1282   1.401       .  A
C1277      H1284   1.082       .  S
C1278      C1279   1.421       .  A
C1279      C1280   1.412       .  A
C1279      C1286   1.522       .  S
C1280      C1281   1.414       .  A
C1280      H1285   1.082       .  S
C1281      C1282   1.421       .  A
C1282      C1283   1.520       .  S
C1283      F1287   1.385       .  S
C1283      F1288   1.382       .  S
C1283      F1289   1.381       .  S
C1286      F1290   1.382       .  S
C1286      F1291   1.378       .  S
C1286      F1292   1.385       .  S
C1293      C1294   1.419       .  A
C1293      C1298   1.405   1_655  A
C1293      H1300   1.081       .  S
C1294      C1295   1.418   1_655  A
C1295      C1296   1.425       .  A
C1295      C1302   1.514       .  S
C1296      C1297   1.415       .  A
C1296      H1301   1.083       .  S
C1297      C1298   1.408       .  A
C1298      C1299   1.521       .  S
C1299      F1303   1.385   1_455  S
C1299      F1304   1.383       .  S
C1299      F1305   1.383       .  S
C1302      F1306   1.380       .  S
C1302      F1307   1.383       .  S
C1302      F1308   1.384       .  S
C1309      C1310   1.405       .  A
C1309      C1314   1.407       .  A
C1309      H1316   1.085       .  S
C1310      C1311   1.428       .  A
C1311      C1312   1.423       .  A
C1311      C1318   1.516       .  S
C1312      C1313   1.408       .  A
C1312      H1317   1.084       .  S
C1313      C1314   1.420       .  A
C1314      C1315   1.519       .  S
C1315      F1319   1.384       .  S
C1315      F1320   1.384       .  S
C1315      F1321   1.382       .  S
C1318      F1322   1.384       .  S
C1318      F1323   1.382       .  S
C1318      F1324   1.380       .  S
C1325      C1326   1.400       .  A
C1325      C1330   1.399       .  A
C1325      H1332   1.084       .  S
C1326      C1327   1.409       .  A
C1327      C1328   1.398       .  A
C1327      C1334   1.517       .  S
C1328      C1329   1.404       .  A
C1328      H1333   1.084       .  S
C1329      C1330   1.416       .  A
C1330      C1331   1.519       .  S
C1331      F1335   1.383       .  S
C1331      F1336   1.382       .  S
C1331      F1337   1.386       .  S
C1334      F1338   1.384       .  S
C1334      F1339   1.381       .  S
C1334      F1340   1.382       .  S
C1341      C1342   1.402       .  A
C1341      C1346   1.394       .  A
C1341      H1348   1.080       .  S
C1342      C1343   1.406       .  A
C1343      C1344   1.396       .  A
C1343      C1350   1.520       .  S
C1344      C1345   1.413       .  A
C1344      H1349   1.083       .  S
C1345      C1346   1.415       .  A
C1346      C1347   1.517       .  S
C1347      F1351   1.383       .  S
C1347      F1352   1.375       .  S
C1347      F1353   1.377       .  S
C1350      F1354   1.383       .  S
C1350      F1355   1.383       .  S
C1350      F1356   1.385       .  S
C1357      C1358   1.406       .  A
C1357      C1362   1.407       .  A
C1357      H1364   1.084       .  S
C1358      C1359   1.414       .  A
C1359      C1360   1.397       .  A
C1359      C1366   1.522       .  S
C1360      C1361   1.412       .  A
C1360      H1365   1.081       .  S
C1361      C1362   1.421       .  A
C1362      C1363   1.519       .  S
C1363      F1367   1.386       .  S
C1363      F1368   1.383       .  S
C1363      F1369   1.382       .  S
C1366      F1370   1.378       .  S
C1366      F1371   1.381       .  S
C1366      F1372   1.385       .  S
C1373      C1374   1.407       .  A
C1373      C1378   1.406   1_655  A
C1373      H1380   1.083       .  S
C1374      C1375   1.410   1_655  A
C1375      C1376   1.407       .  A
C1375      C1382   1.517       .  S
C1376      C1377   1.413       .  A
C1376      H1381   1.082       .  S
C1377      C1378   1.421       .  A
C1378      C1379   1.521       .  S
C1379      F1383   1.385   1_455  S
C1379      F1384   1.383       .  S
C1379      F1385   1.381       .  S
C1382      F1386   1.385       .  S
C1382      F1387   1.382   1_455  S
C1382      F1388   1.383       .  S
C1389      C1390   1.398       .  A
C1389      C1394   1.412       .  A
C1389      H1396   1.082       .  S
C1390      C1391   1.419       .  A
C1391      C1392   1.416       .  A
C1391      C1398   1.518       .  S
C1392      C1393   1.408       .  A
C1392      H1397   1.083       .  S
C1393      C1394   1.421       .  A
C1394      C1395   1.514       .  S
C1395      F1399   1.379       .  S
C1395      F1400   1.382       .  S
C1395      F1401   1.382       .  S
C1398      F1402   1.382       .  S
C1398      F1403   1.384       .  S
C1398      F1404   1.384       .  S
C1405      C1406   1.422       .  A
C1405      C1410   1.414       .  A
C1405      H1412   1.082       .  S
C1406      C1407   1.420       .  A
C1407      C1408   1.433   1_455  A
C1407      C1414   1.515       .  S
C1408      C1409   1.421       .  A
C1408      H1413   1.083       .  S
C1409      C1410   1.412   1_655  A
C1410      C1411   1.522       .  S
C1411      F1415   1.384       .  S
C1411      F1416   1.383       .  S
C1411      F1417   1.384   1_455  S
C1414      F1418   1.380       .  S
C1414      F1419   1.384       .  S
C1414      F1420   1.384   1_455  S
C1421      C1422   1.399       .  A
C1421      C1426   1.420       .  A
C1421      H1428   1.083       .  S
C1422      C1423   1.431       .  A
C1423      C1424   1.418       .  A
C1423      C1430   1.523       .  S
C1424      C1425   1.404       .  A
C1424      H1429   1.083       .  S
C1425      C1426   1.435       .  A
C1426      C1427   1.518       .  S
C1427      F1431   1.386       .  S
C1427      F1432   1.378       .  S
C1427      F1433   1.382       .  S
C1430      F1434   1.383       .  S
C1430      F1435   1.382       .  S
C1430      F1436   1.384       .  S
C1437      C1438   1.402       .  A
C1437      C1442   1.406       .  A
C1437      H1444   1.085       .  S
C1438      C1439   1.412       .  A
C1439      C1440   1.394       .  A
C1439      C1446   1.521       .  S
C1440      C1441   1.398       .  A
C1440      H1445   1.084       .  S
C1441      C1442   1.418       .  A
C1442      C1443   1.515       .  S
C1443      F1447   1.383       .  S
C1443      F1448   1.382       .  S
C1443      F1449   1.383       .  S
C1446      F1450   1.381       .  S
C1446      F1451   1.382       .  S
C1446      F1452   1.385       .  S
C1453      C1454   1.402       .  A
C1453      C1458   1.400       .  A
C1453      H1460   1.081       .  S
C1454      C1455   1.418       .  A
C1455      C1456   1.398       .  A
C1455      C1462   1.520       .  S
C1456      C1457   1.407       .  A
C1456      H1461   1.083       .  S
C1457      C1458   1.427       .  A
C1458      C1459   1.523       .  S
C1459      F1463   1.385       .  S
C1459      F1464   1.370       .  S
C1459      F1465   1.375       .  S
C1462      F1466   1.383       .  S
C1462      F1467   1.383       .  S
C1462      F1468   1.386       .  S
C1469      C1470   1.403       .  A
C1469      C1474   1.399       .  A
C1469      H1476   1.085       .  S
C1470      C1471   1.414       .  A
C1471      C1472   1.413       .  A
C1471      C1478   1.516       .  S
C1472      C1473   1.407       .  A
C1472      H1477   1.083       .  S
C1473      C1474   1.413       .  A
C1474      C1475   1.516       .  S
C1475      F1479   1.384       .  S
C1475      F1480   1.383       .  S
C1475      F1481   1.383       .  S
C1478      F1482   1.384       .  S
C1478      F1483   1.383       .  S
C1478      F1484   1.382       .  S
C1485      C1486   1.407       .  A
C1485      C1490   1.416       .  A
C1485      H1492   1.082       .  S
C1486      C1487   1.423       .  A
C1487      C1488   1.418       .  A
C1487      C1494   1.519       .  S
C1488      C1489   1.405       .  A
C1488      H1493   1.083       .  S
C1489      C1490   1.419       .  A
C1490      C1491   1.517       .  S
C1491      F1495   1.383       .  S
C1491      F1496   1.380       .  S
C1491      F1497   1.382       .  S
C1494      F1498   1.385       .  S
C1494      F1499   1.381       .  S
C1494      F1500   1.384       .  S
C1501      C1502   1.421       .  A
C1501      C1506   1.419       .  A
C1501      H1508   1.083       .  S
C1502      C1503   1.418       .  A
C1503      C1504   1.411       .  A
C1503      C1510   1.521       .  S
C1504      C1505   1.408       .  A
C1504      H1509   1.077       .  S
C1505      C1506   1.409       .  A
C1506      C1507   1.515       .  S
C1507      F1511   1.384       .  S
C1507      F1512   1.383       .  S
C1507      F1513   1.384       .  S
C1510      F1514   1.382       .  S
C1510      F1515   1.384       .  S
C1510      F1516   1.384       .  S
C1517      C1518   1.401       .  A
C1517      C1522   1.409       .  A
C1517      H1524   1.082       .  S
C1518      C1519   1.420       .  A
C1519      C1520   1.404       .  A
C1519      C1526   1.521       .  S
C1520      C1521   1.408       .  A
C1520      H1525   1.081       .  S
C1521      C1522   1.429       .  A
C1522      C1523   1.523       .  S
C1523      F1527   1.385       .  S
C1523      F1528   1.383       .  S
C1523      F1529   1.382       .  S
C1526      F1530   1.382       .  S
C1526      F1531   1.379       .  S
C1526      F1532   1.385       .  S
C1533      C1534   1.408       .  A
C1533      C1538   1.417       .  A
C1533      H1540   1.080       .  S
C1534      C1535   1.442       .  A
C1535      C1536   1.421       .  A
C1535      C1542   1.518       .  S
C1536      C1537   1.398       .  A
C1536      H1541   1.084       .  S
C1537      C1538   1.421       .  A
C1538      C1539   1.512       .  S
C1539      F1543   1.383       .  S
C1539      F1544   1.380       .  S
C1539      F1545   1.384       .  S
C1542      F1546   1.381       .  S
C1542      F1547   1.381   1_556  S
C1542      F1548   1.386       .  S
