geometry optimzed in LAMMPS
_audit_creation_date              2020-12-01 
_audit_creation_method            'lammps2cif' 
_symmetry_space_group_name_H-M    'P1' 
_symmetry_Int_Tables_number       1 
_symmetry_cell_setting            triclinic 
loop_ 
_symmetry_equiv_pos_as_xyz 
  x,y,z 
_cell_length_a                    26.1471535 
_cell_length_b                    24.015190875530426 
_cell_length_c                    24.44425960075065 
_cell_angle_alpha                 89.60842334788335 
_cell_angle_beta                  91.53223374767325 
_cell_angle_gamma                 86.93461902872619 
loop_ 
_atom_site_label 
_atom_site_type_symbol 
_atom_site_fract_x 
_atom_site_fract_y 
_atom_site_fract_z 
_atom_site_charge 
N1          N  0.08762266  0.05342438  0.09518896    -0.05100
N2          N  0.13737324  0.05744699  0.10197221    -0.57200
N3          N  0.96450108  0.07552955  0.12753172    -0.04800
N4          N  0.92045684  0.08968412  0.14926224    -0.59400
N5          N  0.98478071  0.02949804  0.15069041    -0.04400
N6          N  0.95441069  0.01155829  0.18884179    -0.57200
N7          N  0.06650977  0.09889488  0.07235558    -0.04100
N8          N  0.10143315  0.13495725  0.06297103    -0.59700
C9          C  0.14548568  0.10832009  0.08124180     0.97100
C10         C  0.91460276  0.04976550  0.18705784     0.96800
N11         N  0.89244083  0.07664374  0.97908691    -0.05300
N12         N  0.84383274  0.08592696  0.96592816    -0.57800
N13         N  0.00699722  0.12924143  0.96501096    -0.03400
N14         N  0.04025635  0.16566016  0.95078967    -0.59100
N15         N  0.99362443  0.09928700  0.92271912    -0.05300
N16         N  0.01775540  0.11440636  0.87883760    -0.58100
N17         N  0.90570437  0.10811523  0.02004412    -0.03100
N18         N  0.86629654  0.14103873  0.03456386    -0.59100
Mn19       Mn  0.98606453  0.10562569  0.04760049     1.18400
C20         C  0.82744162  0.12601897  0.00071391     0.99100
C21         C  0.04627573  0.15620508  0.89685015     0.99800
N22         N  0.00089775  0.90641113  0.11927078    -0.05300
N23         N  0.97742487  0.88904821  0.16289825    -0.61700
N24         N  0.08536391  0.90305000  0.01748991    -0.04100
N25         N  0.12485873  0.87703034  0.99455198    -0.62300
N26         N  0.10029647  0.93209918  0.05969175    -0.04900
N27         N  0.15042282  0.92705397  0.06596018    -0.61900
N28         N  0.98766089  0.87780106  0.07624649    -0.03700
N29         N  0.95584665  0.83988399  0.08932315    -0.62600
Mn30       Mn  0.04486213  0.98013740  0.10906822     1.10700
C31         C  0.94996101  0.84693365  0.14340116     1.00400
C32         C  0.16556491  0.89280667  0.02491043     1.00400
N33         N  0.00209247  0.97321029  0.88880453    -0.04900
N34         N  0.01656376  0.97546574  0.83743617    -0.60200
N35         N  0.92417807  0.90872766  0.97069433    -0.04200
N36         N  0.89282099  0.86798141  0.96616412    -0.57000
N37         N  0.90378727  0.95438694  0.94735318    -0.05500
N38         N  0.85809285  0.94594337  0.92673379    -0.59800
N39         N  0.02053505  0.92695198  0.91246497    -0.04500
N40         N  0.04683663  0.89610342  0.87836184    -0.57000
Mn41       Mn  0.94736752  0.02676737  0.93280435     1.20200
Mn42       Mn  0.00469247  0.90238134  0.99416825     1.10100
Cl43       Cl  0.99579939  0.00376568  0.02079452    -0.85000
C44         C  0.04366667  0.92630023  0.83197365     0.97400
C45         C  0.85165106  0.89209296  0.93906918     0.97200
C46         C  0.66892705  0.69220305  0.78358658     0.87500
C47         C  0.71308638  0.65326325  0.76163332    -0.52700
C48         C  0.75294108  0.68185157  0.74096279     0.10400
C49         C  0.74420845  0.74543070  0.74359170     0.21400
C50         C  0.69540402  0.72877232  0.82454093    -0.53500
C51         C  0.73439061  0.75597570  0.80391684     0.10500
C52         C  0.65246712  0.73211503  0.73555707    -0.53000
C53         C  0.69225732  0.76013468  0.71492231     0.11100
H54         H  0.71437134  0.60817524  0.76578425     0.15600
H55         H  0.77639680  0.76873250  0.72772653     0.01300
H56         H  0.68437415  0.73317862  0.86698598     0.15900
H57         H  0.61293033  0.73995164  0.72165263     0.15700
C58         C  0.68219892  0.72907337  0.21188612     0.87500
C59         C  0.72209421  0.76349751  0.18424287    -0.52700
C60         C  0.75916944  0.78120960  0.21966793     0.10400
C61         C  0.75222858  0.76443375  0.27909703     0.21400
C62         C  0.71473009  0.68192338  0.24177095    -0.53500
C63         C  0.75238220  0.70070072  0.27612145     0.10500
C64         C  0.66064935  0.76740195  0.25712354    -0.53000
C65         C  0.69771398  0.78648247  0.29181013     0.11100
H66         H  0.72341835  0.76921659  0.14017310     0.15600
H67         H  0.78204319  0.77933770  0.30791001     0.01300
H68         H  0.71284880  0.63832780  0.23073550     0.15900
H69         H  0.62050964  0.78119551  0.25909690     0.15700
N70         N  0.46759738  0.66780068  0.91576714    -0.35600
N71         N  0.55318154  0.67028530  0.99638984    -0.56200
N72         N  0.47962338  0.66830557  0.08563998    -0.35600
N73         N  0.39382842  0.67126239  0.00475460    -0.56200
C74         C  0.50741027  0.67021539  0.88148077     0.28000
C75         C  0.42360280  0.68002952  0.88629702     0.28000
C76         C  0.52272509  0.67785261  0.11541798     0.28000
C77         C  0.43978583  0.66975437  0.12000279     0.28000
C78         C  0.58099306  0.66402716  0.95046512     0.36600
C79         C  0.58659023  0.67376607  0.03962724     0.36600
C80         C  0.35987288  0.67765438  0.96196264     0.36600
C81         C  0.36644589  0.66845774  0.05090672     0.36600
C82         C  0.48828786  0.68268138  0.82907735    -0.20900
C83         C  0.43587450  0.68911317  0.83213882    -0.20900
C84         C  0.51005994  0.68418956  0.16994730    -0.20900
C85         C  0.45815402  0.67864866  0.17288076    -0.20900
C86         C  0.63275054  0.66343430  0.96485387    -0.21900
C87         C  0.63623532  0.67011042  0.02089547    -0.21900
C88         C  0.31039751  0.67947526  0.98119053    -0.21900
C89         C  0.31454812  0.67304544  0.03718210    -0.21900
C90         C  0.56061740  0.66268741  0.89552276    -0.17300
C91         C  0.37256849  0.68361695  0.90599516    -0.17300
C92         C  0.38704249  0.66560754  0.10551034    -0.17300
C93         C  0.57323637  0.68132893  0.09556000    -0.17300
H94         H  0.50987240  0.68790565  0.79239383     0.15600
H95         H  0.40986243  0.69966246  0.79806363     0.15600
H96         H  0.53547847  0.69225977  0.20431799     0.15600
H97         H  0.43630857  0.68229801  0.20979494     0.15600
H98         H  0.66476425  0.65977930  0.93772671     0.13900
H99         H  0.67137867  0.67190197  0.04509903     0.13900
H100        H  0.27494755  0.68523559  0.95744560     0.13900
H101        H  0.28291476  0.67306880  0.06478492     0.13900
H102        H  0.47050599  0.65743549  0.95705198     0.27200
H103        H  0.47731797  0.66124281  0.04387466     0.27200
C104        C  0.79733247  0.29546184  0.75196283     0.87500
C105        C  0.78280709  0.25109332  0.71049626    -0.52700
C106        C  0.74471121  0.21891996  0.72732338     0.10400
C107        C  0.72404243  0.23459770  0.78389599     0.21400
C108        C  0.74681150  0.32940713  0.76407522    -0.53500
C109        C  0.70867631  0.29697241  0.78201878     0.10500
C110        C  0.80989675  0.26339757  0.80535662    -0.53000
C111        C  0.77070338  0.23298730  0.82317599     0.11100
H112        H  0.80183280  0.24475820  0.67188259     0.15600
H113        H  0.69255342  0.20863340  0.79689640     0.01300
H114        H  0.74432863  0.37461926  0.76630389     0.15900
H115        H  0.84497832  0.26829459  0.82926896     0.15700
N116        N  0.70094742  0.08762883  0.52172326    -0.35600
N117        N  0.68979017  0.01063628  0.42967458    -0.56200
N118        N  0.68797426  0.91772059  0.50858839    -0.35600
N119        N  0.69281330  0.99598619  0.60037902    -0.56200
C120        C  0.69352392  0.12442920  0.47970224     0.28000
C121        C  0.69611722  0.11655305  0.56880081     0.28000
C122        C  0.68025498  0.88983606  0.46132217     0.28000
C123        C  0.68051928  0.88231357  0.55072616     0.28000
C124        C  0.70050666  0.05742215  0.40172755     0.36600
C125        C  0.69455685  0.96731634  0.39449391     0.36600
C126        C  0.70451330  0.03698197  0.63574469     0.36600
C127        C  0.69608403  0.94733311  0.62903775     0.36600
C128        C  0.68383133  0.17752655  0.50039388    -0.20900
C129        C  0.68552570  0.17258078  0.55648410    -0.20900
C130        C  0.66804003  0.83568413  0.47370900    -0.20900
C131        C  0.66820541  0.83097544  0.52981535    -0.20900
C132        C  0.71138005  0.04384813  0.34806431    -0.21900
C133        C  0.70754835  0.98697848  0.34348194    -0.21900
C134        C  0.71447329  0.01435457  0.68747086    -0.21900
C135        C  0.70893331  0.95779142  0.68328439    -0.21900
C136        C  0.69922119  0.11231515  0.42351280    -0.17300
C137        C  0.70461568  0.09468432  0.62244757    -0.17300
C138        C  0.68693302  0.89373273  0.60743522    -0.17300
C139        C  0.68660215  0.91048934  0.40740070    -0.17300
H140        H  0.67714669  0.21608274  0.47748783     0.15600
H141        H  0.68026503  0.20659990  0.58495857     0.15600
H142        H  0.66044611  0.80254050  0.44532562     0.15600
H143        H  0.66081616  0.79355478  0.55255727     0.15600
H144        H  0.72128026  0.07192335  0.31564228     0.13900
H145        H  0.71408503  0.96280138  0.30687726     0.13900
H146        H  0.72445648  0.03631832  0.72443852     0.13900
H147        H  0.71409147  0.92775664  0.71638526     0.13900
H148        H  0.71250811  0.04594635  0.51852864     0.27200
H149        H  0.70000826  0.95777750  0.51185645     0.27200
C150        C  0.80211627  0.29048001  0.28020142     0.87500
C151        C  0.76382071  0.31032931  0.23448806    -0.52700
C152        C  0.72780481  0.27286813  0.22208105     0.10400
C153        C  0.73315818  0.21890959  0.25695344     0.21400
C154        C  0.76916150  0.27546037  0.32930855    -0.53500
C155        C  0.73356524  0.23687573  0.31699812     0.10500
C156        C  0.82433175  0.23402819  0.26116749    -0.53000
C157        C  0.78829035  0.19608428  0.25056712     0.11100
H158        H  0.76564235  0.34997965  0.21316531     0.15600
H159        H  0.70404289  0.18821298  0.24686169     0.01300
H160        H  0.77824339  0.28776636  0.37097133     0.15900
H161        H  0.86525383  0.22333468  0.26069122     0.15700
N162        N  0.51068386  0.31710746  0.91905041    -0.35600
N163        N  0.59521211  0.31049632  0.00164696    -0.56200
N164        N  0.52021718  0.31193517  0.08908590    -0.35600
N165        N  0.43536262  0.32308201  0.00619199    -0.56200
C166        C  0.55057743  0.32380786  0.88581686     0.28000
C167        C  0.46693314  0.32244018  0.88806222     0.28000
C168        C  0.56402086  0.30706775  0.12018363     0.28000
C169        C  0.48011646  0.31827488  0.12295315     0.28000
C170        C  0.62324968  0.31217437  0.95584576     0.36600
C171        C  0.62842907  0.30240432  0.04493672     0.36600
C172        C  0.40291846  0.31625373  0.96266546     0.36600
C173        C  0.40765623  0.31974756  0.05219413     0.36600
C174        C  0.53174192  0.33316300  0.83268211    -0.20900
C175        C  0.47923337  0.33210648  0.83407475    -0.20900
C176        C  0.55142174  0.31003382  0.17496056    -0.20900
C177        C  0.49884700  0.31740862  0.17668705    -0.20900
C178        C  0.67481358  0.30583553  0.97034932    -0.21900
C179        C  0.67816199  0.29908176  0.02636684    -0.21900
C180        C  0.35403091  0.30923086  0.98124561    -0.21900
C181        C  0.35693397  0.31176125  0.03756865    -0.21900
C182        C  0.60352978  0.32003887  0.90115167    -0.17300
C183        C  0.41636824  0.31664684  0.90639771    -0.17300
C184        C  0.42705343  0.32241381  0.10730926    -0.17300
C185        C  0.61502390  0.29974588  0.10107336    -0.17300
H186        H  0.55353529  0.33954515  0.79635139     0.15600
H187        H  0.45310609  0.33779495  0.79914523     0.15600
H188        H  0.57736109  0.30723999  0.21024797     0.15600
H189        H  0.47692482  0.32083448  0.21356185     0.15600
H190        H  0.70669450  0.30700866  0.94332358     0.13900
H191        H  0.71330757  0.29358851  0.05067516     0.13900
H192        H  0.31980984  0.30253970  0.95680269     0.13900
H193        H  0.32543442  0.30670405  0.06470841     0.13900
H194        H  0.51315312  0.30708856  0.96006944     0.27200
H195        H  0.51764887  0.30996210  0.04713821     0.27200
C196        C  0.26915739  0.77809379  0.68901744     0.87500
C197        C  0.23015386  0.73447621  0.67175076    -0.52700
C198        C  0.20181247  0.71620219  0.71445223     0.10400
C199        C  0.21613144  0.74266150  0.76972836     0.21400
C200        C  0.23711686  0.82352664  0.71658157    -0.53500
C201        C  0.20832116  0.80561887  0.75747063     0.10500
C202        C  0.30247755  0.75064874  0.73503720    -0.53000
C203        C  0.27515663  0.73211156  0.77779282     0.11100
H204        H  0.22325973  0.72239088  0.62959007     0.15600
H205        H  0.19352779  0.72858301  0.80460167     0.01300
H206        H  0.23236234  0.86581824  0.70022893     0.15900
H207        H  0.34407092  0.74842514  0.73494730     0.15700
N208        N  0.91951052  0.50028922  0.71533502    -0.35600
N209        N  0.00596239  0.41786484  0.70969559    -0.56200
N210        N  0.07513389  0.51009444  0.70788936    -0.35600
N211        N  0.98773570  0.59285055  0.70645628    -0.56200
C212        C  0.89505356  0.45284002  0.70584435     0.28000
C213        C  0.88539154  0.54349776  0.70394439     0.28000
C214        C  0.10858320  0.46615177  0.69857012     0.28000
C215        C  0.09925195  0.55736215  0.69679301     0.28000
C216        C  0.96828464  0.38296853  0.72034259     0.36600
C217        C  0.05119108  0.38791283  0.71598542     0.36600
C218        C  0.94307827  0.62250888  0.71577276     0.36600
C219        C  0.02651629  0.62812684  0.71162146     0.36600
C220        C  0.84505695  0.46609732  0.68801477    -0.20900
C221        C  0.83898002  0.52312348  0.68674411    -0.20900
C222        C  0.15446284  0.48584604  0.68145821    -0.20900
C223        C  0.14861403  0.54301649  0.68023415    -0.20900
C224        C  0.98964161  0.33010615  0.73242038    -0.21900
C225        C  0.04208837  0.33318446  0.72956596    -0.21900
C226        C  0.95343630  0.67755695  0.72594960    -0.21900
C227        C  0.00607761  0.68114707  0.72322965    -0.21900
C228        C  0.91497194  0.39794361  0.71680558    -0.17300
C229        C  0.89329799  0.60057109  0.71283453    -0.17300
C230        C  0.07968095  0.61314821  0.70432176    -0.17300
C231        C  0.10033367  0.40889459  0.70799422    -0.17300
H232        H  0.81569835  0.43758042  0.67755639     0.15600
H233        H  0.80399946  0.54688149  0.67508013     0.15600
H234        H  0.18891709  0.46155341  0.67128927     0.15600
H235        H  0.17784316  0.57083440  0.66886097     0.15600
H236        H  0.96953887  0.29313544  0.74186622     0.13900
H237        H  0.07026627  0.29902553  0.73664455     0.13900
H238        H  0.92594609  0.71160532  0.73407302     0.13900
H239        H  0.02687636  0.71851870  0.72906831     0.13900
H240        H  0.95587435  0.50295991  0.73279662     0.27200
H241        H  0.03914193  0.50808557  0.72414529     0.27200
C242        C  0.30362146  0.27775294  0.79183015     0.87500
C243        C  0.27046927  0.32422297  0.76188733    -0.52700
C244        C  0.23024957  0.30495553  0.73153292     0.10400
C245        C  0.22831666  0.24093760  0.73252379     0.21400
C246        C  0.26515891  0.24641101  0.82461615    -0.53500
C247        C  0.22540516  0.22790426  0.79378536     0.10500
C248        C  0.32120812  0.23676873  0.74697029    -0.53000
C249        C  0.28174315  0.21697856  0.71602890     0.11100
H250        H  0.27485344  0.36829237  0.76923401     0.15600
H251        H  0.19599170  0.22528000  0.70763869     0.01300
H252        H  0.26714082  0.24268674  0.86898556     0.15900
H253        H  0.36101743  0.22316820  0.74152361     0.15700
N254        N  0.30738322  0.91645343  0.48208676    -0.35600
N255        N  0.30822001  0.99527681  0.57398454    -0.56200
N256        N  0.29707806  0.08786880  0.49516172    -0.35600
N257        N  0.30217604  0.00834821  0.40336661    -0.56200
C258        C  0.31714959  0.88006246  0.52399263     0.28000
C259        C  0.31083296  0.88734579  0.43495431     0.28000
C260        C  0.30504423  0.11619253  0.54225610     0.28000
C261        C  0.30538825  0.12271372  0.45273502     0.28000
C262        C  0.30792659  0.94675935  0.60278690     0.36600
C263        C  0.30099928  0.03770513  0.60989507     0.36600
C264        C  0.29409591  0.96617019  0.36816447     0.36600
C265        C  0.29381815  0.05653254  0.37474704     0.36600
C266        C  0.32745623  0.82711426  0.50312325    -0.20900
C267        C  0.32340733  0.83169337  0.44713836    -0.20900
C268        C  0.31771626  0.17001970  0.52947170    -0.20900
C269        C  0.31813295  0.17405653  0.47326555    -0.20900
C270        C  0.30181811  0.95866653  0.65779871    -0.21900
C271        C  0.29727269  0.01597882  0.66223836    -0.21900
C272        C  0.28121088  0.98771844  0.31657297    -0.21900
C273        C  0.28121931  0.04486181  0.32066884    -0.21900
C274        C  0.31328874  0.89194162  0.58044757    -0.17300
C275        C  0.29951591  0.90852341  0.38149750    -0.17300
C276        C  0.29957201  0.11071672  0.39604612    -0.17300
C277        C  0.29993118  0.09566013  0.59646653    -0.17300
H278        H  0.33597305  0.78876579  0.52588795     0.15600
H279        H  0.32830635  0.79760210  0.41869276     0.15600
H280        H  0.32625825  0.20296591  0.55774001     0.15600
H281        H  0.32672678  0.21084570  0.45015065     0.15600
H282        H  0.30118424  0.92921508  0.69141615     0.13900
H283        H  0.29241656  0.03899381  0.69983007     0.13900
H284        H  0.27300325  0.96468962  0.27973851     0.13900
H285        H  0.27278513  0.07441783  0.28761200     0.13900
H286        H  0.29559915  0.95790840  0.48563062     0.27200
H287        H  0.28413880  0.04800296  0.49211748     0.27200
C288        C  0.23076033  0.32486896  0.25828680     0.87500
C289        C  0.24741352  0.28501973  0.30527369    -0.52700
C290        C  0.28456464  0.24597377  0.29195380     0.10400
C291        C  0.30302579  0.25133017  0.23279432     0.21400
C292        C  0.28019113  0.35104481  0.23914034    -0.53500
C293        C  0.31790823  0.31191713  0.22475900     0.10500
C294        C  0.21620008  0.28723020  0.21105766    -0.53000
C295        C  0.25437745  0.24951156  0.19715044     0.11100
H296        H  0.22848938  0.28486388  0.34432696     0.15600
H297        H  0.33337736  0.21950856  0.22177787     0.01300
H298        H  0.28257063  0.39538015  0.23133179     0.15900
H299        H  0.17885985  0.29013540  0.19024021     0.15700
C300        C  0.19534569  0.71917655  0.24900478     0.87500
C301        C  0.18895155  0.75247537  0.19548057    -0.52700
C302        C  0.23270398  0.77632629  0.17988234     0.10400
C303        C  0.27773630  0.76731287  0.22062743     0.21400
C304        C  0.24153568  0.67790038  0.23880907    -0.53500
C305        C  0.28450643  0.70351236  0.22275296     0.10500
C306        C  0.21427973  0.76052483  0.29134875    -0.53000
C307        C  0.25708416  0.78615851  0.27635543     0.11100
H308        H  0.15405024  0.75378590  0.17023438     0.15600
H309        H  0.31282636  0.78801023  0.20863063     0.01300
H310        H  0.23801233  0.63311655  0.23635170     0.15900
H311        H  0.19453893  0.77017875  0.32895209     0.15700
N312        N  0.07119036  0.52259334  0.28571099    -0.35600
N313        N  0.00586105  0.42795423  0.29746473    -0.56200
N314        N  0.91728559  0.50744497  0.29937363    -0.35600
N315        N  0.98309931  0.60234148  0.29403717    -0.56200
C316        C  0.10652690  0.48039876  0.29640581     0.28000
C317        C  0.09464594  0.57079568  0.29411410     0.28000
C318        C  0.89501636  0.45931519  0.31145557     0.28000
C319        C  0.88321260  0.55012614  0.31048249     0.28000
C320        C  0.05067271  0.39985676  0.28625104     0.36600
C321        C  0.96818742  0.39151741  0.29217173     0.36600
C322        C  0.01931326  0.63844027  0.28162478     0.36600
C323        C  0.93685339  0.63051169  0.28894957     0.36600
C324        C  0.15282414  0.50203710  0.31189016    -0.20900
C325        C  0.14537287  0.55895375  0.31041975    -0.20900
C326        C  0.84642248  0.47168942  0.33098867    -0.20900
C327        C  0.83901841  0.52875425  0.33042431    -0.20900
C328        C  0.04162845  0.34469332  0.27493337    -0.21900
C329        C  0.98943319  0.33941831  0.27865218    -0.21900
C330        C  0.99602558  0.69049627  0.26971134    -0.21900
C331        C  0.94384351  0.68551913  0.27440907    -0.21900
C332        C  0.09956522  0.42313743  0.28836339    -0.17300
C333        C  0.07300378  0.62509864  0.28347217    -0.17300
C334        C  0.88882315  0.60739920  0.29884970    -0.17300
C335        C  0.91530409  0.40455732  0.30114624    -0.17300
H336        H  0.18854705  0.47916649  0.32251814     0.15600
H337        H  0.17431058  0.58829069  0.31980453     0.15600
H338        H  0.81865399  0.44256191  0.34339267     0.15600
H339        H  0.80445238  0.55184531  0.34231300     0.15600
H340        H  0.06969015  0.31171178  0.26522111     0.13900
H341        H  0.96945907  0.30155985  0.27233426     0.13900
H342        H  0.01466463  0.72813807  0.25916898     0.13900
H343        H  0.91447687  0.71862200  0.26805395     0.13900
H344        H  0.03451727  0.51878113  0.26944412     0.27200
H345        H  0.95193771  0.51080911  0.28044732     0.27200
C346        C  0.14743315  0.69293262  0.26355967    -0.12300
C347        C  0.10974339  0.66747341  0.27324230    -0.13800
C348        C  0.14606905  0.38797149  0.28050887    -0.12300
C349        C  0.18638911  0.36256967  0.27183301    -0.13800
C350        C  0.28989358  0.86772404  0.33894879    -0.12300
C351        C  0.27760420  0.83083625  0.30848180    -0.13800
C352        C  0.29580244  0.19741479  0.32673667    -0.12300
C353        C  0.29910072  0.15742388  0.35740977    -0.13800
C354        C  0.29477215  0.13707341  0.64047136    -0.12300
C355        C  0.28925527  0.17344403  0.67480612    -0.13800
C356        C  0.14576909  0.37021827  0.71112760    -0.12300
C357        C  0.18487491  0.34073885  0.71725467    -0.13800
C358        C  0.29672229  0.80591901  0.64565686    -0.12300
C359        C  0.30901761  0.84371496  0.61645108    -0.13800
C360        C  0.15609243  0.68362553  0.70765096    -0.12300
C361        C  0.11827773  0.65577395  0.70551346    -0.13800
C362        C  0.35843924  0.32359422  0.18710150    -0.12300
C363        C  0.38990377  0.32524592  0.15138507    -0.13800
C364        C  0.34487157  0.29736572  0.82892317    -0.12300
C365        C  0.37648027  0.30848974  0.86415126    -0.13800
C366        C  0.87824018  0.36082644  0.29749649    -0.12300
C367        C  0.84350078  0.32930830  0.29192835    -0.13800
C368        C  0.68911191  0.28244274  0.17843220    -0.12300
C369        C  0.65635980  0.29039669  0.14250406    -0.13800
C370        C  0.71626108  0.19830060  0.35769843    -0.12300
C371        C  0.70658390  0.15951388  0.38702983    -0.13800
C372        C  0.87710790  0.35634665  0.72586490    -0.12300
C373        C  0.84085631  0.32856748  0.73563973    -0.13800
C374        C  0.66986044  0.31705099  0.81968663    -0.12300
C375        C  0.63996926  0.32187213  0.85675697    -0.13800
C376        C  0.71571670  0.13478059  0.66530882    -0.12300
C377        C  0.72757149  0.17219952  0.69544734    -0.13800
C378        C  0.32148159  0.67688150  0.18678702    -0.12300
C379        C  0.35106985  0.66708669  0.15030736    -0.13800
C380        C  0.30158303  0.71099707  0.82777768    -0.12300
C381        C  0.33096568  0.69699154  0.86554093    -0.13800
C382        C  0.68896341  0.83163943  0.33049323    -0.12300
C383        C  0.68672000  0.86938247  0.36337078    -0.13800
C384        C  0.79978194  0.66759276  0.28848683    -0.12300
C385        C  0.84136329  0.64273304  0.29454290    -0.13800
C386        C  0.64377055  0.70933164  0.17121539    -0.12300
C387        C  0.61333492  0.69519292  0.13590772    -0.13800
C388        C  0.59645908  0.66086373  0.84992814    -0.12300
C389        C  0.62690636  0.66726280  0.81366916    -0.13800
C390        C  0.68603941  0.80637836  0.67609407    -0.12300
C391        C  0.68540038  0.84653476  0.64553143    -0.13800
C392        C  0.84640984  0.63606152  0.72044536    -0.12300
C393        C  0.80350950  0.65657294  0.72837189    -0.13800
C394        C  0.79321975  0.88142575  0.85987495    -0.12300
C395        C  0.81562491  0.85962318  0.90889097     0.09800
C396        C  0.81094180  0.80368564  0.92317830    -0.12300
C397        C  0.78501985  0.76942714  0.88804370    -0.13000
C398        C  0.76422830  0.79098178  0.83845492     0.09800
C399        C  0.76805738  0.84682167  0.82434531    -0.12300
H400        H  0.79715364  0.92441665  0.84776045     0.13800
H401        H  0.82861556  0.78620721  0.96051186     0.13800
H402        H  0.78162426  0.72601454  0.89906324     0.13800
H403        H  0.75119393  0.86350222  0.78634037     0.13800
C404        C  0.79731202  0.21963844  0.97494343    -0.12300
C405        C  0.78474322  0.16421630  0.98249800     0.09800
C406        C  0.74975885  0.14160651  0.94520228    -0.12300
C407        C  0.74314268  0.16521423  0.89303251    -0.12300
C408        C  0.76794162  0.21377020  0.88037538     0.09800
C409        C  0.79081876  0.24357117  0.92299753    -0.12300
H410        H  0.82131094  0.23981259  0.00478463     0.13800
H411        H  0.73737190  0.09975273  0.95152075     0.13800
H412        H  0.72333600  0.14250295  0.86157545     0.13800
H413        H  0.80642759  0.28368359  0.91544343     0.13800
C414        C  0.12512751  0.93181414  0.79129184    -0.12300
C415        C  0.07655872  0.91026336  0.78800176     0.09800
C416        C  0.07091865  0.85623575  0.76821373    -0.12300
C417        C  0.11401292  0.82113921  0.76020585    -0.12300
C418        C  0.16286267  0.84055157  0.77038141     0.09800
C419        C  0.16824238  0.89678265  0.78336618    -0.12300
H420        H  0.13008878  0.97308778  0.80763676     0.13800
H421        H  0.03348094  0.83889624  0.76619235     0.13800
H422        H  0.10903558  0.77879457  0.74731896     0.13800
H423        H  0.20590022  0.91293353  0.78914715     0.13800
C424        C  0.88426390  0.85149069  0.21524018    -0.12300
C425        C  0.90672258  0.82415199  0.17065154     0.09800
C426        C  0.88157138  0.78123362  0.14444737    -0.12300
C427        C  0.83294899  0.76857210  0.15962345    -0.12300
C428        C  0.80901545  0.79801872  0.20185723     0.09800
C429        C  0.83548835  0.83815553  0.23100832    -0.12300
H430        H  0.90300489  0.88497430  0.23577539     0.13800
H431        H  0.89847638  0.75921862  0.11026509     0.13800
H432        H  0.81416406  0.73550723  0.13845459     0.13800
H433        H  0.81788902  0.86010712  0.26482885     0.13800
C434        C  0.21630808  0.77150010  0.07948693    -0.12300
C435        C  0.23858469  0.79828424  0.12436578     0.09800
C436        C  0.26100137  0.84924696  0.11620721    -0.12300
C437        C  0.25004806  0.87869937  0.06748272    -0.12300
C438        C  0.21345100  0.85841145  0.03064715     0.09800
C439        C  0.20653893  0.80092783  0.03077585    -0.12300
H440        H  0.20177738  0.73034850  0.08390175     0.13800
H441        H  0.28079463  0.86935086  0.14949872     0.13800
H442        H  0.25938486  0.92206856  0.06554269     0.13800
H443        H  0.18219923  0.78266835  0.99993787     0.13800
C444        C  0.79062686  0.10684091  0.20032576    -0.12300
C445        C  0.80272605  0.13636537  0.24749907     0.09800
C446        C  0.83852019  0.11268214  0.28605270    -0.12300
C447        C  0.87078836  0.06760218  0.27117126    -0.12300
C448        C  0.86754918  0.04830642  0.21750328     0.09800
C449        C  0.82243224  0.06102275  0.18615864    -0.12300
H450        H  0.76198580  0.12366571  0.17097274     0.13800
H451        H  0.84648300  0.13391639  0.32405860     0.13800
H452        H  0.90433215  0.05672927  0.29680072     0.13800
H453        H  0.81845969  0.04468308  0.14512521     0.13800
C454        C  0.10956247  0.14717289  0.82296155    -0.12300
C455        C  0.08823935  0.17808854  0.86614193     0.09800
C456        C  0.11116390  0.22641880  0.88391759    -0.12300
C457        C  0.15586783  0.24254626  0.86012590    -0.12300
C458        C  0.17826679  0.21040027  0.81846849     0.09800
C459        C  0.15437191  0.16337508  0.79914040    -0.12300
H460        H  0.09281759  0.10928367  0.80911645     0.13800
H461        H  0.09513212  0.25097598  0.91694819     0.13800
H462        H  0.17308362  0.28006116  0.87430783     0.13800
H463        H  0.17110388  0.13851148  0.76670750     0.13800
C464        C  0.22707860  0.11623168  0.13247527    -0.12300
C465        C  0.19243160  0.13705973  0.09148784     0.09800
C466        C  0.19440973  0.19235454  0.07340135    -0.12300
C467        C  0.22200765  0.22928128  0.10422881    -0.12300
C468        C  0.24762862  0.21043152  0.15249938     0.09800
C469        C  0.25466118  0.15329921  0.16342230    -0.12300
H470        H  0.22708169  0.07319496  0.14603418     0.13800
H471        H  0.16910615  0.20871697  0.04060441     0.13800
H472        H  0.21785367  0.27342354  0.09455226     0.13800
H473        H  0.27525563  0.13826810  0.20010658     0.13800
loop_ 
_geom_bond_atom_site_label_1 
_geom_bond_atom_site_label_2 
_geom_bond_distance 
_geom_bond_site_symmetry_2 
_ccdc_geom_bond_type 
N1            N2   1.316       .  A
N1            N7   1.311       .  A
N1          Mn30   2.165   1_545  S
N2            C9   1.349       .  A
N3            N5   1.318       .  A
N3            N4   1.310       .  A
N3          Mn19   2.177       .  S
N4           C10   1.344       .  A
N5            N6   1.325       .  A
N5          Mn30   2.193   1_645  S
N6           C10   1.350       .  A
N7            N8   1.315       .  A
N7          Mn19   2.170   1_455  S
N8            C9   1.351       .  A
C9          C465   1.457       .  S
C10         C448   1.457       .  S
N11          N17   1.309   1_556  A
N11          N12   1.310       .  A
N11         Mn41   2.168       .  S
N12          C20   1.349   1_556  A
N13          N14   1.317       .  A
N13          N15   1.314   1_455  A
N13         Mn19   2.185   1_456  S
N14          C21   1.351       .  A
N15          N16   1.318   1_655  A
N15         Mn41   2.189       .  S
N16          C21   1.351       .  A
N17          N18   1.323       .  A
N17         Mn19   2.187       .  S
N18          C20   1.358       .  A
Mn19        Cl43   2.538       .  S
C20         C405   1.464   1_554  S
C21         C455   1.464       .  S
N22          N23   1.321   1_455  A
N22          N28   1.309   1_455  A
N22         Mn30   2.178       .  S
N23          C31   1.353       .  A
N24          N26   1.312       .  A
N24          N25   1.318   1_554  A
N24         Mn42   2.171   1_554  S
N25          C32   1.353   1_556  A
N26          N27   1.315       .  A
N26         Mn30   2.196       .  S
N27          C32   1.356       .  A
N28          N29   1.309       .  A
N28         Mn42   2.152   1_654  S
N29          C31   1.346       .  A
Mn30        Cl43   2.526   1_465  S
C31         C425   1.457       .  S
C32         C438   1.466       .  S
N33          N34   1.323       .  A
N33          N39   1.312       .  A
N33         Mn41   2.182   1_465  S
N34          C44   1.353       .  A
N35          N36   1.313       .  A
N35          N37   1.313       .  A
N35         Mn42   2.164   1_655  S
N36          C45   1.350       .  A
N37          N38   1.311       .  A
N37         Mn41   2.161   1_565  S
N38          C45   1.346       .  A
N39          N40   1.304       .  A
N39         Mn42   2.136       .  S
N40          C44   1.340       .  A
Mn41        Cl43   2.510   1_556  S
Mn42        Cl43   2.525   1_466  S
C44         C415   1.436       .  S
C45         C395   1.445       .  S
C46          C47   1.556       .  S
C46          C52   1.548       .  S
C46          C50   1.514       .  S
C46         C389   1.488       .  S
C47          H54   1.085       .  S
C47          C48   1.383       .  D
C48          C49   1.534       .  S
C48         C393   1.466       .  S
C49          C53   1.535       .  S
C49          C51   1.524       .  S
C49          H55   1.112       .  S
C50          H56   1.089       .  S
C50          C51   1.347       .  D
C51         C398   1.440       .  S
C52          H57   1.086       .  S
C52          C53   1.374       .  D
C53         C390   1.456       .  S
C58          C59   1.533       .  S
C58          C64   1.542       .  S
C58          C62   1.547       .  S
C58         C386   1.492       .  S
C59          H66   1.087       .  S
C59          C60   1.369       .  D
C60          C61   1.523       .  S
C60         C428   1.461       .  S
C61          C65   1.534       .  S
C61          C63   1.533       .  S
C61          H67   1.112       .  S
C62          H68   1.086       .  S
C62          C63   1.373       .  D
C63         C384   1.460       .  S
C64          H69   1.086       .  S
C64          C65   1.370       .  D
C65         C382   1.457       .  S
N70          C75   1.358       .  A
N70          C74   1.357       .  A
N70         H102   1.038       .  S
N71          C78   1.359       .  A
N71          C79   1.359   1_556  A
N72          C77   1.355       .  A
N72          C76   1.356       .  A
N72         H103   1.037       .  S
N73          C80   1.356   1_554  A
N73          C81   1.355       .  A
C74          C82   1.387       .  A
C74          C90   1.426       .  A
C75          C91   1.429       .  A
C75          C83   1.389       .  A
C76          C84   1.389       .  A
C76          C93   1.426       .  A
C77          C92   1.423       .  A
C77          C85   1.389       .  A
C78          C90   1.433       .  A
C78          C86   1.388       .  A
C79          C93   1.431       .  A
C79          C87   1.387       .  A
C80          C88   1.387       .  A
C80          C91   1.424       .  A
C81          C89   1.388       .  A
C81          C92   1.426       .  A
C82          C83   1.375       .  A
C82          H94   1.082       .  S
C83          H95   1.081       .  S
C84          C85   1.374       .  A
C84          H96   1.082       .  S
C85          H97   1.082       .  S
C86          C87   1.381   1_556  A
C86          H98   1.082       .  S
C87          H99   1.082       .  S
C88          C89   1.377   1_556  A
C88         H100   1.082       .  S
C89         H101   1.081       .  S
C90         C388   1.475       .  S
C91         C381   1.471       .  S
C92         C379   1.462       .  S
C93         C387   1.473       .  S
C104        C105   1.531       .  S
C104        C110   1.530       .  S
C104        C108   1.551       .  S
C104        C373   1.484       .  S
C105        H112   1.087       .  S
C105        C106   1.363       .  D
C106        C107   1.540       .  S
C106        C377   1.454       .  S
C107        C111   1.531       .  S
C107        C109   1.530       .  S
C107        H113   1.111       .  S
C108        H114   1.086       .  S
C108        C109   1.377       .  D
C109        C374   1.454       .  S
C110        H115   1.087       .  S
C110        C111   1.369       .  D
C111        C408   1.474       .  S
N116        C121   1.354       .  A
N116        C120   1.354       .  A
N116        H148   1.034       .  S
N117        C124   1.357       .  A
N117        C125   1.357   1_545  A
N118        C123   1.356       .  A
N118        C122   1.355       .  A
N118        H149   1.031       .  S
N119        C126   1.356   1_565  A
N119        C127   1.356       .  A
C120        C128   1.388       .  A
C120        C136   1.416       .  A
C121        C137   1.417       .  A
C121        C129   1.388       .  A
C122        C130   1.389       .  A
C122        C139   1.422       .  A
C123        C138   1.422       .  A
C123        C131   1.388       .  A
C124        C136   1.424       .  A
C124        C132   1.387       .  A
C125        C139   1.426       .  A
C125        C133   1.387       .  A
C126        C134   1.386       .  A
C126        C137   1.421       .  A
C127        C135   1.387       .  A
C127        C138   1.424       .  A
C128        C129   1.375       .  A
C128        H140   1.082       .  S
C129        H141   1.082       .  S
C130        C131   1.375       .  A
C130        H142   1.082       .  S
C131        H143   1.082       .  S
C132        C133   1.380   1_545  A
C132        H144   1.083       .  S
C133        H145   1.082       .  S
C134        C135   1.378   1_545  A
C134        H146   1.082       .  S
C135        H147   1.081       .  S
C136        C371   1.461       .  S
C137        C376   1.462       .  S
C138        C391   1.465       .  S
C139        C383   1.465       .  S
C150        C151   1.536       .  S
C150        C156   1.527       .  S
C150        C154   1.548       .  S
C150        C367   1.489       .  S
C151        H158   1.086       .  S
C151        C152   1.366       .  D
C152        C153   1.544       .  S
C152        C368   1.459       .  S
C153        C157   1.527       .  S
C153        C155   1.533       .  S
C153        H159   1.112       .  S
C154        H160   1.086       .  S
C154        C155   1.377       .  D
C155        C370   1.452       .  S
C156        H161   1.087       .  S
C156        C157   1.367       .  D
C157        C445   1.466       .  S
N162        C167   1.355       .  A
N162        C166   1.355       .  A
N162        H194   1.029       .  S
N163        C170   1.356   1_554  A
N163        C171   1.357       .  A
N164        C169   1.356       .  A
N164        C168   1.357       .  A
N164        H195   1.027       .  S
N165        C172   1.359   1_554  A
N165        C173   1.358       .  A
C166        C174   1.389       .  A
C166        C182   1.423       .  A
C167        C183   1.421       .  A
C167        C175   1.388       .  A
C168        C176   1.389       .  A
C168        C185   1.427       .  A
C169        C184   1.427       .  A
C169        C177   1.389       .  A
C170        C182   1.428       .  A
C170        C178   1.385       .  A
C171        C185   1.427       .  A
C171        C179   1.387       .  A
C172        C180   1.386       .  A
C172        C183   1.429       .  A
C173        C181   1.388       .  A
C173        C184   1.430       .  A
C174        C175   1.376       .  A
C174        H186   1.082       .  S
C175        H187   1.082       .  S
C176        C177   1.378       .  A
C176        H188   1.082       .  S
C177        H189   1.082       .  S
C178        C179   1.378   1_556  A
C178        H190   1.079       .  S
C179        H191   1.082       .  S
C180        C181   1.379   1_556  A
C180        H192   1.082       .  S
C181        H193   1.083       .  S
C182        C375   1.465       .  S
C183        C365   1.470       .  S
C184        C363   1.469       .  S
C185        C369   1.469       .  S
C196        C197   1.553       .  S
C196        C202   1.528       .  S
C196        C200   1.513       .  S
C196        C358   1.474       .  S
C197        H204   1.086       .  S
C197        C198   1.379       .  D
C198        C199   1.543       .  S
C198        C360   1.470       .  S
C199        C203   1.558       .  S
C199        C201   1.541       .  S
C199        H205   1.111       .  S
C200        H206   1.089       .  S
C200        C201   1.349       .  D
C201        C418   1.461       .  S
C202        H207   1.086       .  S
C202        C203   1.367       .  D
C203        C380   1.462       .  S
N208        C213   1.354       .  A
N208        C212   1.355       .  A
N208        H240   1.037       .  S
N209        C216   1.356   1_455  A
N209        C217   1.355       .  A
N210        C215   1.357       .  A
N210        C214   1.359       .  A
N210        H241   1.035       .  S
N211        C218   1.360       .  A
N211        C219   1.360   1_655  A
C212        C220   1.387       .  A
C212        C228   1.413       .  A
C213        C229   1.414       .  A
C213        C221   1.388       .  A
C214        C222   1.387       .  A
C214        C231   1.421       .  A
C215        C230   1.423       .  A
C215        C223   1.389       .  A
C216        C228   1.421       .  A
C216        C224   1.386       .  A
C217        C231   1.423       .  A
C217        C225   1.388       .  A
C218        C226   1.386       .  A
C218        C229   1.430       .  A
C219        C227   1.388       .  A
C219        C230   1.433       .  A
C220        C221   1.370       .  A
C220        H232   1.082       .  S
C221        H233   1.082       .  S
C222        C223   1.373       .  A
C222        H234   1.082       .  S
C223        H235   1.082       .  S
C224        C225   1.381   1_655  A
C224        H236   1.082       .  S
C225        H237   1.083       .  S
C226        C227   1.387   1_655  A
C226        H238   1.082       .  S
C227        H239   1.082       .  S
C228        C372   1.463       .  S
C229        C392   1.472       .  S
C230        C361   1.475       .  S
C231        C356   1.468       .  S
C242        C243   1.544       .  S
C242        C248   1.541       .  S
C242        C246   1.528       .  S
C242        C364   1.488       .  S
C243        H250   1.086       .  S
C243        C244   1.373       .  D
C244        C245   1.541       .  S
C244        C357   1.460       .  S
C245        C249   1.547       .  S
C245        C247   1.532       .  S
C245        H251   1.111       .  S
C246        H252   1.087       .  S
C246        C247   1.363       .  D
C247        C458   1.467       .  S
C248        H253   1.086       .  S
C248        C249   1.371       .  D
C249        C355   1.466       .  S
N254        C259   1.354       .  A
N254        C258   1.352       .  A
N254        H286   1.031       .  S
N255        C262   1.358       .  A
N255        C263   1.358   1_565  A
N256        C261   1.357       .  A
N256        C260   1.358       .  A
N256        H287   1.035       .  S
N257        C264   1.355   1_545  A
N257        C265   1.353       .  A
C258        C266   1.389       .  A
C258        C274   1.416       .  A
C259        C275   1.417       .  A
C259        C267   1.388       .  A
C260        C268   1.387       .  A
C260        C277   1.423       .  A
C261        C276   1.423       .  A
C261        C269   1.388       .  A
C262        C274   1.430       .  A
C262        C270   1.388       .  A
C263        C277   1.426       .  A
C263        C271   1.386       .  A
C264        C272   1.386       .  A
C264        C275   1.419       .  A
C265        C273   1.388       .  A
C265        C276   1.419       .  A
C266        C267   1.373       .  A
C266        H278   1.083       .  S
C267        H279   1.082       .  S
C268        C269   1.377       .  A
C268        H280   1.082       .  S
C269        H281   1.082       .  S
C270        C271   1.380   1_565  A
C270        H282   1.082       .  S
C271        H283   1.082       .  S
C272        C273   1.377   1_565  A
C272        H284   1.082       .  S
C273        H285   1.082       .  S
C274        C359   1.461       .  S
C275        C350   1.460       .  S
C276        C353   1.461       .  S
C277        C354   1.474       .  S
C288        C289   1.529       .  S
C288        C294   1.524       .  S
C288        C292   1.549       .  S
C288        C349   1.479       .  S
C289        H296   1.087       .  S
C289        C290   1.361       .  D
C290        C291   1.543       .  S
C290        C352   1.451       .  S
C291        C295   1.525       .  S
C291        C293   1.539       .  S
C291        H297   1.112       .  S
C292        H298   1.086       .  S
C292        C293   1.380       .  D
C293        C362   1.459       .  S
C294        H299   1.088       .  S
C294        C295   1.363       .  D
C295        C468   1.458       .  S
C300        C301   1.529       .  S
C300        C306   1.530       .  S
C300        C304   1.548       .  S
C300        C346   1.483       .  S
C301        H308   1.087       .  S
C301        C302   1.368       .  D
C302        C303   1.527       .  S
C302        C435   1.467       .  S
C303        C307   1.541       .  S
C303        C305   1.533       .  S
C303        H309   1.112       .  S
C304        H310   1.086       .  S
C304        C305   1.374       .  D
C305        C378   1.450       .  S
C306        H311   1.087       .  S
C306        C307   1.363       .  D
C307        C351   1.451       .  S
N312        C317   1.353       .  A
N312        C316   1.354       .  A
N312        H344   1.037       .  S
N313        C320   1.356       .  A
N313        C321   1.356   1_455  A
N314        C319   1.355       .  A
N314        C318   1.356       .  A
N314        H345   1.035       .  S
N315        C322   1.356   1_655  A
N315        C323   1.356       .  A
C316        C324   1.387       .  A
C316        C332   1.411       .  A
C317        C333   1.413       .  A
C317        C325   1.389       .  A
C318        C326   1.387       .  A
C318        C335   1.418       .  A
C319        C334   1.419       .  A
C319        C327   1.388       .  A
C320        C332   1.422       .  A
C320        C328   1.387       .  A
C321        C335   1.424       .  A
C321        C329   1.387       .  A
C322        C330   1.387   1_455  A
C322        C333   1.423       .  A
C323        C331   1.388       .  A
C323        C334   1.426       .  A
C324        C325   1.370       .  A
C324        H336   1.083       .  S
C325        H337   1.082       .  S
C326        C327   1.374       .  A
C326        H338   1.082       .  S
C327        H339   1.082       .  S
C328        C329   1.383   1_455  A
C328        H340   1.083       .  S
C329        H341   1.082       .  S
C330        C331   1.384       .  A
C330        H342   1.082   1_655  S
C331        H343   1.083       .  S
C332        C348   1.461       .  S
C333        C347   1.461       .  S
C334        C385   1.466       .  S
C335        C366   1.468       .  S
C346        C347   1.215       .  T
C348        C349   1.214       .  T
C350        C351   1.212       .  T
C352        C353   1.212       .  T
C354        C355   1.221       .  T
C356        C357   1.217       .  T
C358        C359   1.213       .  T
C360        C361   1.223       .  T
C362        C363   1.217       .  T
C364        C365   1.218       .  T
C366        C367   1.219       .  T
C368        C369   1.217       .  T
C370        C371   1.213       .  T
C372        C373   1.216       .  T
C374        C375   1.214       .  T
C376        C377   1.214       .  T
C378        C379   1.212       .  T
C380        C381   1.219       .  T
C382        C383   1.216       .  T
C384        C385   1.217       .  T
C386        C387   1.221       .  T
C388        C389   1.221       .  T
C390        C391   1.215       .  T
C392        C393   1.222       .  T
C394        C395   1.405       .  A
C394        C399   1.384       .  A
C394        H400   1.083       .  S
C395        C396   1.398       .  A
C396        C397   1.383       .  A
C396        H401   1.084       .  S
C397        C398   1.400       .  A
C397        H402   1.084       .  S
C398        C399   1.392       .  A
C399        H403   1.083       .  S
C404        C405   1.400       .  A
C404        C409   1.393       .  A
C404        H410   1.083   1_556  S
C405        C406   1.406       .  A
C406        C407   1.395       .  A
C406        H411   1.084       .  S
C407        C408   1.401       .  A
C407        H412   1.082       .  S
C408        C409   1.406       .  A
C409        H413   1.083       .  S
C414        C415   1.397       .  A
C414        C419   1.389       .  A
C414        H420   1.084       .  S
C415        C416   1.402       .  A
C416        C417   1.390       .  A
C416        H421   1.084       .  S
C417        C418   1.400       .  A
C417        H422   1.080       .  S
C418        C419   1.403       .  A
C419        H423   1.084       .  S
C424        C425   1.402       .  A
C424        C429   1.395       .  A
C424        H430   1.083       .  S
C425        C426   1.401       .  A
C426        C427   1.383       .  A
C426        H431   1.083       .  S
C427        C428   1.398       .  A
C427        H432   1.083       .  S
C428        C429   1.404       .  A
C429        H433   1.083       .  S
C434        C435   1.404       .  A
C434        C439   1.391       .  A
C434        H440   1.083       .  S
C435        C436   1.400       .  A
C436        C437   1.396       .  A
C436        H441   1.083       .  S
C437        C438   1.405       .  A
C437        H442   1.083       .  S
C438        C439   1.402       .  A
C439        H443   1.084   1_554  S
C444        C445   1.396       .  A
C444        C449   1.395       .  A
C444        H450   1.083       .  S
C445        C446   1.406       .  A
C446        C447   1.393       .  A
C446        H451   1.083       .  S
C447        C448   1.396       .  A
C447        H452   1.083       .  S
C448        C449   1.408       .  A
C449        H453   1.084       .  S
C454        C455   1.405       .  A
C454        C459   1.395       .  A
C454        H460   1.083       .  S
C455        C456   1.401       .  A
C456        C457   1.391       .  A
C456        H461   1.083       .  S
C457        C458   1.404       .  A
C457        H462   1.083       .  S
C458        C459   1.399       .  A
C459        H463   1.083       .  S
C464        C465   1.404       .  A
C464        C469   1.391       .  A
C464        H470   1.083       .  S
C465        C466   1.401       .  A
C466        C467   1.387       .  A
C466        H471   1.084       .  S
C467        C468   1.401       .  A
C467        H472   1.084       .  S
C468        C469   1.397       .  A
C469        H473   1.083       .  S
