geometry optimzed in LAMMPS
_audit_creation_date              2020-12-01 
_audit_creation_method            'lammps2cif' 
_symmetry_space_group_name_H-M    'P1' 
_symmetry_Int_Tables_number       1 
_symmetry_cell_setting            triclinic 
loop_ 
_symmetry_equiv_pos_as_xyz 
  x,y,z 
_cell_length_a                    55.67126828 
_cell_length_b                    56.09456915045085 
_cell_length_c                    32.618548139749876 
_cell_angle_alpha                 89.4293646370242 
_cell_angle_beta                  90.65863238767689 
_cell_angle_gamma                 122.26500610864696 
loop_ 
_atom_site_label 
_atom_site_type_symbol 
_atom_site_fract_x 
_atom_site_fract_y 
_atom_site_fract_z 
_atom_site_charge 
In1        In  0.23866713  0.33976879  0.30125027     1.36900
C2          C  0.28584225  0.36712247  0.25912530     0.77200
O3          O  0.26687054  0.33759911  0.34673134    -0.61200
O4          O  0.23761384  0.29973878  0.31431283    -0.52100
C5          C  0.20889452  0.34134732  0.36181914     0.69900
O6          O  0.23231143  0.36297305  0.35073544    -0.47000
C7          C  0.20595189  0.34008249  0.24257195     0.74600
O8          O  0.28048064  0.37923330  0.28708736    -0.58900
O9          O  0.20642103  0.31818576  0.25125208    -0.49000
O10         O  0.26638268  0.34183655  0.25210501    -0.55300
C11         C  0.25816681  0.31208895  0.33971019     0.84800
O12         O  0.20139066  0.31910896  0.34202632    -0.57200
O13         O  0.22220996  0.36137764  0.26436893    -0.60500
In14       In  0.10856336  0.34802224  0.04816615     1.36900
C15         C  0.05919778  0.31417746  0.08404088     0.77200
O16         O  0.12468922  0.32693071  0.08727802    -0.61200
O17         O  0.14051675  0.37016667  0.09910028    -0.52100
C18         C  0.14031314  0.34610764  0.48990308     0.69900
O19         O  0.11631019  0.32491722  0.49984039    -0.47000
C20         C  0.09503237  0.38143246  0.00984916     0.74600
O21         O  0.06569706  0.30751407  0.05084201    -0.58900
O22         O  0.10924939  0.38866367  0.04303681    -0.49000
O23         O  0.07782001  0.33786130  0.09838435    -0.55300
C24         C  0.14073606  0.34831913  0.10896316     0.84800
O25         O  0.14764661  0.36803307  0.01067489    -0.57200
O26         O  0.08953754  0.35887915  0.49654493    -0.60500
In27       In  0.34503096  0.24404655  0.45238148     1.36900
C28         C  0.37031384  0.29019776  0.99409192     0.77200
O29         O  0.34017211  0.27092947  0.40758819    -0.61200
O30         O  0.30333405  0.24029941  0.44065172    -0.52100
C31         C  0.34798527  0.21431229  0.39321719     0.69900
O32         O  0.36908565  0.23837690  0.40309359    -0.47000
C33         C  0.34458869  0.21261726  0.01310116     0.74600
O34         O  0.38396170  0.28646165  0.46537827    -0.58900
O35         O  0.32205273  0.21120533  0.00130679    -0.49000
O36         O  0.34524635  0.27015902  0.00142898    -0.55300
C37         C  0.31416285  0.26052341  0.41503272     0.84800
O38         O  0.32562055  0.20630930  0.41330472    -0.57200
O39         O  0.36662953  0.22971703  0.99309346    -0.60500
In40       In  0.35044724  0.11390846  0.20496061     1.36900
C41         C  0.32123884  0.06552935  0.16584887     0.77200
O42         O  0.32791374  0.12775013  0.16408985    -0.61200
O43         O  0.37258079  0.14702883  0.15682679    -0.52100
C44         C  0.34780884  0.14354815  0.26480632     0.69900
O45         O  0.32711217  0.11898118  0.25607136    -0.47000
C46         C  0.38369950  0.10056114  0.24290265     0.74600
O47         O  0.31007106  0.07199738  0.19383784    -0.58900
O48         O  0.39176640  0.11595189  0.21099618    -0.49000
O49         O  0.34689294  0.08398986  0.15851205    -0.55300
C50         C  0.35002790  0.14545598  0.14480217     0.84800
O51         O  0.36948129  0.15243461  0.24262578    -0.57200
O52         O  0.35928835  0.09302345  0.25562985    -0.60500
In53       In  0.57724765  0.57638758  0.37461987     1.36900
C54         C  0.59754069  0.62426001  0.41497538     0.77200
O55         O  0.53884008  0.55849529  0.41296270    -0.61200
O56         O  0.56728356  0.54452207  0.42399397    -0.52100
C57         C  0.54358598  0.54430006  0.31500850     0.69900
O58         O  0.54746364  0.56837365  0.32220275    -0.47000
C59         C  0.62326886  0.59122247  0.33253971     0.74600
O60         O  0.57798289  0.61631802  0.38820758    -0.58900
O61         O  0.61700267  0.57616241  0.36472076    -0.49000
O62         O  0.60606153  0.60762602  0.42047500    -0.55300
C63         C  0.54448524  0.54295686  0.43385654     0.84800
O64         O  0.55681609  0.53717951  0.33872593    -0.57200
O65         O  0.60615899  0.59868336  0.32289642    -0.60500
In66       In  0.43685067  0.44018014  0.12495263     1.36900
C67         C  0.41866101  0.39367240  0.08428030     0.77200
O68         O  0.40640571  0.41141394  0.17131463    -0.61200
O69         O  0.39772052  0.44012558  0.14097742    -0.52100
C70         C  0.47116454  0.47294693  0.18309809     0.69900
O71         O  0.46881920  0.44976888  0.17433140    -0.47000
C72         C  0.46837898  0.47240300  0.06419278     0.74600
O73         O  0.43728292  0.40145004  0.11244162    -0.58900
O74         O  0.44511808  0.47016388  0.07336727    -0.49000
O75         O  0.40964117  0.40981737  0.07739049    -0.55300
C76         C  0.39002682  0.42045979  0.16714695     0.84800
O77         O  0.45557169  0.47858658  0.16220610    -0.57200
O78         O  0.47498814  0.45820114  0.08656057    -0.60500
In79       In  0.90509741  0.67163891  0.45723510     1.36900
C80         C  0.95318146  0.70363660  0.41752653     0.77200
O81         O  0.92601942  0.66443916  0.00944164    -0.61200
O82         O  0.90388601  0.63116916  0.46576513    -0.52100
C83         C  0.87360981  0.67428557  0.01399281     0.69900
O84         O  0.89847675  0.69498137  0.00632219    -0.47000
C85         C  0.87254024  0.67071303  0.39752026     0.74600
O86         O  0.94724909  0.71226164  0.44934796    -0.58900
O87         O  0.87243807  0.64877825  0.40798421    -0.49000
O88         O  0.93475769  0.67873897  0.40699382    -0.55300
C89         C  0.91815538  0.63939025  0.49887314     0.84800
O90         O  0.86531126  0.65266746  0.99228520    -0.57200
O91         O  0.88935469  0.69259286  0.41786646    -0.60500
In92       In  0.77495124  0.67847444  0.20392044     1.36900
C93         C  0.72508598  0.64354223  0.23785084     0.77200
O94         O  0.78961864  0.65602565  0.24345098    -0.61200
O95         O  0.80741641  0.69975382  0.25387478    -0.52100
C96         C  0.80575674  0.67630561  0.14509430     0.69900
O97         O  0.78016781  0.65656465  0.15090907    -0.47000
C98         C  0.76532295  0.71612866  0.17002218     0.74600
O99         O  0.73265283  0.63696882  0.20559044    -0.58900
O100        O  0.77630387  0.71958477  0.20536263    -0.49000
O101        O  0.74270889  0.66772521  0.25162409    -0.55300
C102        C  0.80655974  0.67749159  0.26435915     0.84800
O103        O  0.81506009  0.69676890  0.16950476    -0.57200
O104        O  0.75962691  0.69372143  0.15259093    -0.60500
In105      In  0.66343812  0.90337536  0.29797734     1.36900
C106        C  0.69440317  0.95340114  0.33301028     0.77200
O107        O  0.65357151  0.92233739  0.24569330    -0.61200
O108        O  0.62147010  0.90032629  0.29087410    -0.52100
C109        C  0.66480222  0.87175651  0.23958451     0.69900
O110        O  0.68565019  0.89658516  0.24671178    -0.47000
C111        C  0.66444676  0.87307736  0.35994105     0.74600
O112        O  0.70464925  0.94562870  0.30540588    -0.58900
O113        O  0.64181629  0.87158094  0.34854642    -0.49000
O114        O  0.66892596  0.93547451  0.34219993    -0.55300
C115        C  0.62877492  0.91412803  0.25744938     0.84800
O116        O  0.64377571  0.86346271  0.26284770    -0.57200
O117        O  0.68623745  0.89026912  0.33964913    -0.60500
In118      In  0.67520661  0.77552428  0.05083879     1.36900
C119        C  0.64706253  0.72602534  0.01277025     0.77200
O120        O  0.65194063  0.78696304  0.00711514    -0.61200
O121        O  0.69694639  0.81040122  0.50366774    -0.52100
C122        C  0.66886226  0.80427013  0.10911201     0.69900
O123        O  0.65002987  0.77851010  0.10252553    -0.47000
C124        C  0.71339970  0.76828934  0.08867586     0.74600
O125        O  0.63496620  0.73285614  0.03871021    -0.58900
O126        O  0.71845197  0.78109638  0.05458997    -0.49000
O127        O  0.67304636  0.74438786  0.50713265    -0.55300
C128        C  0.67392528  0.80694923  0.48989769     0.84800
O129        O  0.69032094  0.81424152  0.08633329    -0.57200
O130        O  0.68934191  0.76018693  0.10356053    -0.60500
In131      In  0.01427792  0.44880059  0.38102719     1.36900
C132        C  0.98550342  0.40000344  0.34311853     0.77200
O133        O  0.99114023  0.46067033  0.33822431    -0.61200
O134        O  0.03597433  0.48137430  0.33153851    -0.52100
C135        C  0.01180725  0.47948429  0.43950528     0.69900
O136        O  0.99057827  0.45534277  0.43014867    -0.47000
C137        C  0.04728909  0.43609525  0.42190905     0.74600
O138        O  0.97354587  0.40727517  0.36866433    -0.58900
O139        O  0.05562852  0.45114363  0.38960136    -0.49000
O140        O  0.01169403  0.41751476  0.33785481    -0.55300
C141        C  0.01300425  0.47867827  0.31886531     0.84800
O142        O  0.03377256  0.48759065  0.41841577    -0.57200
O143        O  0.02249997  0.42837183  0.43330932    -0.60500
In144      In  0.00230116  0.57553090  0.12779687     1.36900
C145        C  0.03472907  0.62532439  0.16178786     0.77200
O146        O  0.99160267  0.59256990  0.07376573    -0.61200
O147        O  0.96169827  0.57556452  0.12255294    -0.52100
C148        C  0.00572010  0.54574885  0.06902315     0.69900
O149        O  0.02648520  0.57016644  0.07814199    -0.47000
C150        C  0.00256960  0.54406338  0.18877756     0.74600
O151        O  0.04449450  0.61615472  0.13567918    -0.58900
O152        O  0.97977836  0.54185933  0.17637640    -0.49000
O153        O  0.00870399  0.60921555  0.16984228    -0.55300
C154        C  0.96822619  0.58746361  0.08760786     0.84800
O155        O  0.98381260  0.53691569  0.09057472    -0.57200
O156        O  0.02457453  0.56262166  0.17036048    -0.60500
In157      In  0.90892254  0.24590788  0.21578841     1.36900
C158        C  0.95451944  0.25960421  0.17319441     0.77200
O159        O  0.88784791  0.20585858  0.18160981    -0.61200
O160        O  0.87717720  0.23609729  0.16552714    -0.52100
C161        C  0.87750902  0.21370761  0.27709883     0.69900
O162        O  0.90033565  0.21544942  0.26689239    -0.47000
C163        C  0.93107739  0.29572470  0.25168105     0.74600
O164        O  0.94891508  0.24618655  0.20687719    -0.58900
O165        O  0.91046902  0.28661538  0.22647472    -0.49000
O166        O  0.93637150  0.26529475  0.16157183    -0.55300
C167        C  0.87349901  0.21208242  0.15866245     0.84800
O168        O  0.87163360  0.22906815  0.25632430    -0.57200
O169        O  0.93967113  0.27921199  0.25772087    -0.60500
In170      In  0.77346435  0.10453141  0.46578824     1.36900
C171        C  0.75409825  0.05844962  0.42227076     0.77200
O172        O  0.74125708  0.07452755  0.00854414    -0.61200
O173        O  0.73345879  0.10352704  0.47887200    -0.52100
C174        C  0.80399557  0.13571361  0.02802773     0.69900
O175        O  0.80323839  0.11345410  0.01804787    -0.47000
C176        C  0.80659021  0.13933269  0.40802833     0.74600
O177        O  0.77357725  0.06561286  0.44903272    -0.58900
O178        O  0.78255563  0.13574019  0.41585651    -0.49000
O179        O  0.74583236  0.07537553  0.41762840    -0.55300
C180        C  0.72473154  0.08333322  0.00305502     0.84800
O181        O  0.78919982  0.14156560  0.00546299    -0.57200
O182        O  0.81319014  0.12505024  0.43018616    -0.60500
In183      In  0.43935202  0.00842111  0.36935071     1.36900
C184        C  0.39161816  0.97673067  0.40939180     0.77200
O185        O  0.45411426  0.98645847  0.40899736    -0.61200
O186        O  0.47208732  0.03034426  0.41914664    -0.52100
C187        C  0.46863471  0.00272856  0.31164349     0.69900
O188        O  0.44338103  0.98327461  0.32001482    -0.47000
C189        C  0.42834090  0.04349482  0.33086786     0.74600
O190        O  0.39621230  0.96866460  0.37587011    -0.58900
O191        O  0.44368841  0.05076015  0.36292689    -0.49000
O192        O  0.41075541  0.00115030  0.42065026    -0.55300
C193        C  0.47100120  0.00796992  0.42991990     0.84800
O194        O  0.47822927  0.02483764  0.33269280    -0.57200
O195        O  0.41887988  0.01860347  0.31931663    -0.60500
In196      In  0.56643297  0.99579284  0.12283179     1.36900
C197        C  0.61615018  0.02484877  0.08531310     0.77200
O198        O  0.58629924  0.98560095  0.17357535    -0.61200
O199        O  0.56064969  0.95304089  0.13045681    -0.52100
C200        C  0.53780299  0.99900427  0.18375293     0.69900
O201        O  0.56274739  0.01906266  0.17494485    -0.47000
C202        C  0.53486277  0.99802694  0.06339914     0.74600
O203        O  0.60925671  0.03590424  0.11281762    -0.58900
O204        O  0.53377068  0.97543473  0.07261446    -0.49000
O205        O  0.59750456  0.99947190  0.07752451    -0.55300
C206        C  0.57638903  0.96055749  0.16222447     0.84800
O207        O  0.52787760  0.97770176  0.16079777    -0.57200
O208        O  0.55216068  0.01911507  0.08471593    -0.60500
In209      In  0.10853606  0.77304060  0.30006306     1.36900
C210        C  0.05983105  0.75676521  0.33457185     0.77200
O211        O  0.08366570  0.74552995  0.24888912    -0.61200
O212        O  0.10561469  0.73229679  0.28777791    -0.52100
C213        C  0.14486119  0.80658945  0.24472120     0.69900
O214        O  0.12261947  0.80662745  0.25288388    -0.47000
C215        C  0.14037911  0.80386312  0.36159471     0.74600
O216        O  0.06857473  0.77340009  0.30400177    -0.58900
O217        O  0.13695202  0.78006151  0.35375770    -0.49000
O218        O  0.07593888  0.74860552  0.34673006    -0.55300
C219        C  0.08955743  0.72710033  0.25673877     0.84800
O220        O  0.14817085  0.78930486  0.26524744    -0.57200
O221        O  0.12707386  0.81104284  0.33813274    -0.60500
In222      In  0.24712088  0.90825390  0.05154947     1.36900
C223        C  0.26838345  0.95863976  0.08290399     0.77200
O224        O  0.21351101  0.89434738  0.09716143    -0.61200
O225        O  0.24081927  0.87860374  0.10327454    -0.52100
C226        C  0.20997924  0.87381029  0.49630714     0.69900
O227        O  0.21396549  0.89791858  0.50314094    -0.47000
C228        C  0.29133094  0.92278850  0.00594516     0.74600
O229        O  0.24579981  0.94710990  0.06147230    -0.58900
O230        O  0.28744897  0.90987556  0.03979014    -0.49000
O231        O  0.27938653  0.94414507  0.08827733    -0.55300
C232        C  0.21983646  0.87904417  0.11710529     0.84800
O233        O  0.22425484  0.86731758  0.51885727    -0.57200
O234        O  0.27202793  0.92718702  0.49579011    -0.60500
C235        C  0.20426613  0.83915969  0.16617504    -0.26700
C236        C  0.20296396  0.86230159  0.15285309    -0.14800
C237        C  0.18385065  0.86799483  0.17185862     0.35900
C238        C  0.16507294  0.84930678  0.20147073    -0.26100
C239        C  0.16552560  0.82556782  0.21369565    -0.15400
C240        C  0.18569071  0.82063063  0.19641431     0.37000
N241        N  0.18681804  0.79655025  0.20871720    -0.89600
H242        H  0.21906344  0.83490063  0.15188996     0.18100
H243        H  0.15013008  0.85350794  0.21540612     0.18100
N244        N  0.18355994  0.89277672  0.16115144    -0.88700
H245        H  0.20326109  0.79644535  0.19371804     0.35400
H246        H  0.16790899  0.77851290  0.19902952     0.40500
H247        H  0.20306646  0.91028214  0.17033881     0.40200
H248        H  0.16792551  0.89353502  0.17748582     0.35000
C249        C  0.16676875  0.81044172  0.42675496    -0.26700
C250        C  0.15833675  0.82202085  0.39577898    -0.14800
C251        C  0.16668812  0.85063856  0.39831402     0.35900
C252        C  0.18260957  0.86668738  0.43225716    -0.26100
C253        C  0.19109326  0.85514434  0.46320239    -0.15400
C254        C  0.18297361  0.82661370  0.46051535     0.37000
N255        N  0.19105623  0.81405900  0.49202144    -0.89600
H256        H  0.16037815  0.78853900  0.42492764     0.18100
H257        H  0.18917278  0.88864822  0.43387079     0.18100
N258        N  0.15952601  0.86355952  0.36613694    -0.88700
H259        H  0.18394318  0.79316895  0.48482673     0.35400
H260        H  0.18129793  0.81380910  0.01864698     0.40500
H261        H  0.17043178  0.86416920  0.33984674     0.40200
H262        H  0.16679312  0.88449988  0.37323157     0.35000
C263        C  0.33958389  0.94265051  0.41500173    -0.26700
C264        C  0.36606882  0.95933076  0.43426426    -0.14800
C265        C  0.36784739  0.96065113  0.47750797     0.35900
C266        C  0.34332200  0.94783435  0.00024761    -0.26100
C267        C  0.31625550  0.93214201  0.48113620    -0.15400
C268        C  0.31462969  0.92916334  0.43801579     0.37000
N269        N  0.28802757  0.91234410  0.41693701    -0.89600
H270        H  0.33818924  0.94106066  0.38186742     0.18100
H271        H  0.34450595  0.94982372  0.03334629     0.18100
N272        N  0.39555969  0.97671764  0.99750722    -0.88700
H273        H  0.27569473  0.92102492  0.42135001     0.35400
H274        H  0.27745047  0.89203758  0.42956659     0.40500
H275        H  0.40582699  0.96583620  0.49087317     0.40200
H276        H  0.39310332  0.97575946  0.02931916     0.35000
C277        C  0.48000394  0.97943252  0.47898770    -0.26700
C278        C  0.48758891  0.00626383  0.46452940    -0.14800
C279        C  0.51067522  0.03051560  0.98313455     0.35900
C280        C  0.52543513  0.02712687  0.01566615    -0.26100
C281        C  0.51772407  0.00021637  0.03005693    -0.15400
C282        C  0.49474419  0.97610966  0.51151362     0.37000
N283        N  0.48585333  0.94834489  0.52618058    -0.89600
H284        H  0.46216872  0.96079613  0.46513306     0.18100
H285        H  0.54347012  0.04568633  0.02933510     0.18100
N286        N  0.51947024  0.05827437  0.96854962    -0.88700
H287        H  0.46871570  0.93293157  0.50884816     0.35400
H288        H  0.47751271  0.94701692  0.05733636     0.40500
H289        H  0.52655853  0.06063550  0.43970713     0.40200
H290        H  0.53640699  0.07367864  0.98615404     0.35000
C291        C  0.51416719  0.02339171  0.27457102    -0.26700
C292        C  0.48615155  0.00047737  0.27989788    -0.14800
C293        C  0.47572134  0.97652880  0.25473325     0.35900
C294        C  0.49323067  0.97659288  0.22400712    -0.26100
C295        C  0.52095656  0.99993055  0.21785040    -0.15400
C296        C  0.53169568  0.02342146  0.24401497     0.37000
N297        N  0.56027626  0.04723827  0.23974228    -0.89600
H298        H  0.52246679  0.04170819  0.29407952     0.18100
H299        H  0.48499910  0.95826404  0.20453786     0.18100
N300        N  0.44739345  0.95242741  0.25985878    -0.88700
H301        H  0.56531797  0.06181250  0.26317196     0.35400
H302        H  0.56113177  0.05753754  0.21241251     0.40500
H303        H  0.44680571  0.94314337  0.28808400     0.40200
H304        H  0.44270001  0.93722553  0.23757721     0.35000
C305        C  0.68240177  0.04012390  0.02922118    -0.26700
C306        C  0.69683550  0.06935754  0.02344985    -0.14800
C307        C  0.68483674  0.08428091  0.03812767     0.35900
C308        C  0.65846347  0.06943704  0.05844760    -0.26100
C309        C  0.64384960  0.04000775  0.06381779    -0.15400
C310        C  0.65598161  0.02522037  0.04868338     0.37000
N311        N  0.64194010  0.99520453  0.05412316    -0.89600
H312        H  0.69166393  0.02869861  0.01787971     0.18100
H313        H  0.64922994  0.08082876  0.06997253     0.18100
N314        N  0.69971539  0.11437411  0.03324294    -0.88700
H315        H  0.65507945  0.98817408  0.04506902     0.35400
H316        H  0.62450705  0.98572056  0.03409898     0.40500
H317        H  0.71859882  0.12316337  0.05021076     0.40200
H318        H  0.68802492  0.12213598  0.04582237     0.35000
C319        C  0.82109369  0.17905736  0.06926248    -0.26700
C320        C  0.82091394  0.15417534  0.06291131    -0.14800
C321        C  0.83714387  0.14798179  0.08934606     0.35900
C322        C  0.85381666  0.16721532  0.12033787    -0.26100
C323        C  0.85452029  0.19244598  0.12607708    -0.15400
C324        C  0.83752966  0.19809406  0.10025829     0.37000
N325        N  0.83644674  0.22289659  0.10440845    -0.89600
H326        H  0.80854509  0.18407370  0.04960628     0.18100
H327        H  0.86646552  0.16239465  0.14008671     0.18100
N328        N  0.83689401  0.12239486  0.08465249    -0.88700
H329        H  0.85677800  0.24062800  0.09978317     0.35400
H330        H  0.82967155  0.22331045  0.13400432     0.40500
H331        H  0.81655223  0.10561753  0.09222531     0.40200
H332        H  0.85085946  0.12164127  0.10555758     0.35000
C333        C  0.81454228  0.17035565  0.34823419    -0.26700
C334        C  0.82531641  0.15853903  0.37510469    -0.14800
C335        C  0.85347302  0.16512456  0.36931178     0.35900
C336        C  0.86988602  0.18324459  0.33749304    -0.26100
C337        C  0.85909478  0.19503751  0.31063847    -0.15400
C338        C  0.83084325  0.18820914  0.31613316     0.37000
N339        N  0.81768307  0.19836784  0.28923417    -0.89600
H340        H  0.79300863  0.16540996  0.35175128     0.18100
H341        H  0.89136861  0.18808272  0.33377855     0.18100
N342        N  0.86621849  0.15394159  0.39503092    -0.88700
H343        H  0.81825398  0.19223104  0.25924373     0.35400
H344        H  0.82882205  0.22031905  0.29093394     0.40500
H345        H  0.85447515  0.13193922  0.39248899     0.40200
H346        H  0.86608776  0.15968250  0.42530503     0.35000
C347        C  0.07061598  0.65607876  0.21334318    -0.26700
C348        C  0.05188951  0.65286234  0.18163942    -0.14800
C349        C  0.04699394  0.67465032  0.17325143     0.35900
C350        C  0.05994509  0.69857008  0.19801697    -0.26100
C351        C  0.07786361  0.70156251  0.23097703    -0.15400
C352        C  0.08367896  0.68023694  0.23830737     0.37000
N353        N  0.10237672  0.68285913  0.27113968    -0.89600
H354        H  0.07405338  0.63911883  0.21975914     0.18100
H355        H  0.05551607  0.71484491  0.19151300     0.18100
N356        N  0.02876139  0.67314259  0.14035905    -0.88700
H357        H  0.10539503  0.66599883  0.27089655     0.35400
H358        H  0.09221457  0.68126859  0.29871719     0.40500
H359        H  0.02076366  0.65481075  0.12314971     0.40200
H360        H  0.04118968  0.68988645  0.12026894     0.35000
C361        C  0.96951826  0.33177477  0.29627011    -0.26700
C362        C  0.94458800  0.32321447  0.27348066    -0.14800
C363        C  0.93305970  0.34041873  0.27360792     0.35900
C364        C  0.94599943  0.36494559  0.29801553    -0.26100
C365        C  0.97067350  0.37302042  0.32091293    -0.15400
C366        C  0.98267686  0.35643945  0.31974802     0.37000
N367        N  0.00811566  0.36463293  0.34283667    -0.89600
H368        H  0.97883516  0.31905470  0.29604738     0.18100
H369        H  0.93735607  0.37827013  0.29820747     0.18100
N370        N  0.90838354  0.33304153  0.24924704    -0.88700
H371        H  0.01440285  0.35029313  0.33848688     0.35400
H372        H  0.00332910  0.36371515  0.37393548     0.40500
H373        H  0.91417748  0.33484505  0.21843841     0.40200
H374        H  0.90233486  0.34754774  0.25365266     0.35000
C375        C  0.98437825  0.49341683  0.98203955    -0.26700
C376        C  0.01093808  0.49701069  0.47238183    -0.14800
C377        C  0.03555899  0.51714062  0.49445072     0.35900
C378        C  0.03332594  0.53295504  0.52537483    -0.26100
C379        C  0.00685033  0.52872366  0.03571606    -0.15400
C380        C  0.98227917  0.50907424  0.01322866     0.37000
N381        N  0.95495812  0.50485445  0.02066224    -0.89600
H382        H  0.96542421  0.47873189  0.96481971     0.18100
H383        H  0.05228444  0.54809654  0.54219424     0.18100
N384        N  0.06294934  0.52145891  0.48719380    -0.88700
H385        H  0.95665215  0.52426372  0.01849210     0.35400
H386        H  0.94847205  0.49662060  0.05019275     0.40500
H387        H  0.06920526  0.52909289  0.45739562     0.40200
H388        H  0.06147363  0.50213808  0.49036959     0.35000
C389        C  0.03123256  0.53591420  0.23910651    -0.26700
C390        C  0.00434483  0.52671934  0.22197004    -0.14800
C391        C  0.98063712  0.50096243  0.23587634     0.35900
C392        C  0.98425685  0.48563502  0.26683158    -0.26100
C393        C  0.01110269  0.49513051  0.28443957    -0.15400
C394        C  0.03489151  0.52051776  0.26978936     0.37000
N395        N  0.06296493  0.53158385  0.28575982    -0.89600
H396        H  0.04977408  0.55546924  0.22874803     0.18100
H397        H  0.96577193  0.46602626  0.27717542     0.18100
N398        N  0.95277268  0.48948989  0.21883273    -0.88700
H399        H  0.06882380  0.51710794  0.28044068     0.35400
H400        H  0.06285335  0.53462478  0.31745248     0.40500
H401        H  0.95363890  0.48707987  0.18724503     0.40200
H402        H  0.94628127  0.50355463  0.22413702     0.35000
C403        C  0.58008104  0.93962797  0.22717528    -0.26700
C404        C  0.58399249  0.94242406  0.18446137    -0.14800
C405        C  0.59957440  0.93224000  0.16563985     0.35900
C406        C  0.61266282  0.92174632  0.19034297    -0.26100
C407        C  0.61039304  0.92074017  0.23322747    -0.15400
C408        C  0.59296497  0.92867209  0.25180982     0.37000
N409        N  0.58968610  0.92707633  0.29559154    -0.89600
H410        H  0.56809892  0.94738072  0.24156226     0.18100
H411        H  0.62575168  0.91532128  0.17586341     0.18100
N412        N  0.60452043  0.93405056  0.12220277    -0.88700
H413        H  0.57582692  0.93336912  0.30423312     0.35400
H414        H  0.60943104  0.94153422  0.30856666     0.40500
H415        H  0.59549996  0.94364171  0.10644546     0.40200
H416        H  0.59463187  0.91345300  0.11110314     0.35000
C417        C  0.68532027  0.86684162  0.17544376    -0.26700
C418        C  0.66480499  0.85395048  0.20614839    -0.14800
C419        C  0.64445215  0.82459628  0.20381254     0.35900
C420        C  0.64561192  0.80886953  0.17128685    -0.26100
C421        C  0.66669247  0.82173566  0.14116515    -0.15400
C422        C  0.68633547  0.85127060  0.14283594     0.37000
N423        N  0.70728986  0.86553706  0.11136875    -0.89600
H424        H  0.70053666  0.88937915  0.17655361     0.18100
H425        H  0.63038243  0.78634188  0.17002959     0.18100
N426        N  0.62295106  0.81071519  0.23465778    -0.88700
H427        H  0.72059316  0.88699559  0.11788998     0.35400
H428        H  0.69649970  0.86421971  0.08418285     0.40500
H429        H  0.63315352  0.81161990  0.26223588     0.40200
H430        H  0.60931672  0.78932905  0.22784256     0.35000
C431        C  0.69247951  0.86611041  0.41309408    -0.26700
C432        C  0.66599479  0.85626297  0.39414060    -0.14800
C433        C  0.64229480  0.83017793  0.40711681     0.35900
C434        C  0.64563693  0.81473278  0.43814573    -0.26100
C435        C  0.67219354  0.82441660  0.45682983    -0.15400
C436        C  0.69585971  0.85062927  0.44403150     0.37000
N437        N  0.72352508  0.86232490  0.46192253    -0.89600
H438        H  0.71088668  0.88611536  0.40374873     0.18100
H439        H  0.62719985  0.79471478  0.44736332     0.18100
N440        N  0.61476537  0.81832426  0.38868244    -0.88700
H441        H  0.73048536  0.84871432  0.45659624     0.35400
H442        H  0.72213684  0.86435826  0.49362845     0.40500
H443        H  0.61645914  0.81635720  0.35719152     0.40200
H444        H  0.60764197  0.83193364  0.39361906     0.35000
C445        C  0.73988027  0.99462186  0.36037155    -0.26700
C446        C  0.71044534  0.98115179  0.35361542    -0.14800
C447        C  0.69599348  0.99362837  0.36865972     0.35900
C448        C  0.71097953  0.01860977  0.39125818    -0.26100
C449        C  0.74017498  0.03171306  0.39911910    -0.15400
C450        C  0.75482535  0.01963452  0.38325749     0.37000
N451        N  0.78478862  0.03252684  0.38914272    -0.89600
H452        H  0.75118085  0.98530939  0.34869486     0.18100
H453        H  0.69967591  0.02790603  0.40303390     0.18100
N454        N  0.66614050  0.98106848  0.36060910    -0.88700
H455        H  0.78896468  0.03329595  0.42048453     0.35400
H456        H  0.79506874  0.05320465  0.37771229     0.40500
H457        H  0.66355578  0.98194577  0.32872574     0.40200
H458        H  0.65877341  0.99270246  0.37393226     0.35000
C459        C  0.73449081  0.76149097  0.15196625    -0.26700
C460        C  0.73290122  0.76135240  0.10893527    -0.14800
C461        C  0.74652336  0.75062407  0.08632784     0.35900
C462        C  0.75890959  0.73770283  0.10728776    -0.26100
C463        C  0.75838381  0.73571204  0.15030040    -0.15400
C464        C  0.74757839  0.74923148  0.17294027     0.37000
N465        N  0.74803969  0.74869428  0.21699047    -0.89600
H466        H  0.72443980  0.77018925  0.16928378     0.18100
H467        H  0.76775092  0.72783641  0.08987569     0.18100
N468        N  0.74610741  0.75115906  0.04224617    -0.88700
H469        H  0.73809217  0.75848807  0.22888573     0.35400
H470        H  0.76929841  0.76085770  0.22636473     0.40500
H471        H  0.72503708  0.73784289  0.03260021     0.40200
H472        H  0.75746240  0.74281928  0.03038922     0.35000
C473        C  0.93819176  0.60945924  0.00067066    -0.26700
C474        C  0.92716060  0.62296142  0.02209850    -0.14800
C475        C  0.92657239  0.62182656  0.06545991     0.35900
C476        C  0.93797658  0.60790493  0.08638059    -0.26100
C477        C  0.95100782  0.59628674  0.06488230    -0.15400
C478        C  0.95053499  0.59653594  0.02154488     0.37000
N479        N  0.96315872  0.58417448  0.99886696    -0.89600
H480        H  0.93849332  0.61025580  0.96745339     0.18100
H481        H  0.93833108  0.60772198  0.11960361     0.18100
N482        N  0.91439431  0.63469019  0.08808482    -0.88700
H483        H  0.96175053  0.58683255  0.96728920     0.35400
H484        H  0.95111906  0.56253020  0.00450528     0.40500
H485        H  0.92783163  0.65652858  0.08500155     0.40200
H486        H  0.91406464  0.63038345  0.11941562     0.35000
C487        C  0.81011560  0.65690695  0.07939346    -0.26700
C488        C  0.82342001  0.67583051  0.11194198    -0.14800
C489        C  0.85330006  0.69443235  0.11186729     0.35900
C490        C  0.86902156  0.69405224  0.07885405    -0.26100
C491        C  0.85575912  0.67499684  0.04652281    -0.15400
C492        C  0.82591697  0.65626047  0.04664672     0.37000
N493        N  0.81171615  0.63686355  0.01342565    -0.89600
H494        H  0.78722102  0.64277421  0.07920447     0.18100
H495        H  0.89191999  0.70817351  0.07901695     0.18100
N496        N  0.86770471  0.71325586  0.14561072    -0.88700
H497        H  0.81421932  0.64867204  0.98718039     0.35400
H498        H  0.78976823  0.62416027  0.01876608     0.40500
H499        H  0.88960860  0.72589672  0.14024778     0.40200
H500        H  0.86520295  0.70093744  0.17130723     0.35000
C501        C  0.81789666  0.64961313  0.31166549    -0.26700
C502        C  0.82363840  0.67614226  0.29853437    -0.14800
C503        C  0.84522308  0.70061771  0.31851229     0.35900
C504        C  0.86036904  0.69798716  0.35103128    -0.26100
C505        C  0.85487634  0.67154593  0.36388812    -0.15400
C506        C  0.83312508  0.64700543  0.34425626     0.37000
N507        N  0.82638772  0.61958107  0.35747501    -0.89600
H508        H  0.80119332  0.63070989  0.29672716     0.18100
H509        H  0.87700957  0.71692833  0.36597172     0.18100
N510        N  0.85199357  0.72810859  0.30561192    -0.88700
H511        H  0.81036553  0.60384161  0.33904485     0.35400
H512        H  0.81805907  0.61622288  0.38702699     0.40500
H513        H  0.86073161  0.73175480  0.27631269     0.40200
H514        H  0.86773076  0.74376027  0.32447975     0.35000
C515        C  0.00739285  0.73180495  0.33214903    -0.26700
C516        C  0.03266184  0.74697472  0.35481726    -0.14800
C517        C  0.03167437  0.75040917  0.39739131     0.35900
C518        C  0.00522459  0.73769425  0.41686195    -0.26100
C519        C  0.97996782  0.72071610  0.39481334    -0.15400
C520        C  0.98093108  0.71831268  0.35183339     0.37000
N521        N  0.95510676  0.70179624  0.32856214    -0.89600
H522        H  0.00837413  0.72936066  0.29940037     0.18100
H523        H  0.00439816  0.73966635  0.44975268     0.18100
N524        N  0.05752821  0.76678954  0.42066418    -0.88700
H525        H  0.95956105  0.70202788  0.29742784     0.35400
H526        H  0.94350411  0.71145136  0.33096117     0.40500
H527        H  0.06790082  0.75580220  0.42129582     0.40200
H528        H  0.05302786  0.76841340  0.45114702     0.35000
C529        C  0.64949416  0.68892793  0.47669045    -0.26700
C530        C  0.63278525  0.69953706  0.48836621    -0.14800
C531        C  0.60428484  0.68579852  0.47449970     0.35900
C532        C  0.59325062  0.66169939  0.44934499    -0.26100
C533        C  0.60998815  0.65087366  0.43853153    -0.15400
C534        C  0.63853799  0.66492627  0.45202556     0.37000
N535        N  0.65655004  0.65506158  0.44004240    -0.89600
H536        H  0.67146450  0.69959351  0.48674789     0.18100
H537        H  0.57137669  0.65099704  0.43887686     0.18100
N538        N  0.58660179  0.69560007  0.98781584    -0.88700
H539        H  0.67684072  0.66752558  0.45292380     0.35400
H540        H  0.65903815  0.65749793  0.40824473     0.40500
H541        H  0.58347025  0.69284014  0.01945273     0.40200
H542        H  0.56647208  0.68353198  0.97424947     0.35000
C543        C  0.64716035  0.60375471  0.26519575    -0.26700
C544        C  0.64870816  0.60010931  0.30760574    -0.14800
C545        C  0.67492074  0.60752675  0.32560102     0.35900
C546        C  0.69931513  0.61984881  0.30102025    -0.26100
C547        C  0.69801541  0.62493635  0.25902166    -0.15400
C548        C  0.67140343  0.61601751  0.24058172     0.37000
N549        N  0.66825451  0.62080045  0.19799590    -0.89600
H550        H  0.62699867  0.59797112  0.25121044     0.18100
H551        H  0.71976782  0.62683476  0.31508288     0.18100
N552        N  0.67702489  0.60409260  0.36897745    -0.88700
H553        H  0.65551223  0.60109074  0.18417780     0.35400
H554        H  0.68754627  0.63098253  0.18258608     0.40500
H555        H  0.67252623  0.61764669  0.38396478     0.40200
H556        H  0.69783796  0.61050284  0.37720567     0.35000
C557        C  0.51359306  0.49311729  0.02594610    -0.26700
C558        C  0.48702235  0.49019651  0.03022522    -0.14800
C559        C  0.48026473  0.50529580  0.50313986     0.35900
C560        C  0.49920306  0.52215532  0.47208170    -0.26100
C561        C  0.52549765  0.52458128  0.46716562    -0.15400
C562        C  0.53264352  0.51014426  0.99514119     0.37000
N563        N  0.55988267  0.51313009  0.99231846    -0.89600
H564        H  0.51982339  0.48235998  0.04717763     0.18100
H565        H  0.49322310  0.53338289  0.45138354     0.18100
N566        N  0.45353222  0.50325599  0.50710786    -0.88700
H567        H  0.56180851  0.50042920  0.01422112     0.35400
H568        H  0.57574379  0.53257649  0.49799353     0.40500
H569        H  0.43646319  0.48056344  0.99809713     0.40200
H570        H  0.45187130  0.51638440  0.48582225     0.35000
C571        C  0.49990902  0.48072342  0.24579215    -0.26700
C572        C  0.49035206  0.49185182  0.21575574    -0.14800
C573        C  0.49900838  0.52060962  0.21808733     0.35900
C574        C  0.51636582  0.53716914  0.25050349    -0.26100
C575        C  0.52526643  0.52584545  0.28121509    -0.15400
C576        C  0.51691001  0.49719882  0.27878570     0.37000
N577        N  0.52518940  0.48468225  0.31008944    -0.89600
H578        H  0.49340365  0.45877507  0.24422601     0.18100
H579        H  0.52293129  0.55914965  0.25161932     0.18100
N580        N  0.49104778  0.53387712  0.18780631    -0.88700
H581        H  0.51785538  0.46370478  0.30304370     0.35400
H582        H  0.51502636  0.48416728  0.33712891     0.40500
H583        H  0.46904254  0.52451990  0.18833981     0.40200
H584        H  0.49722078  0.53114784  0.15893723     0.35000
C585        C  0.41636368  0.05788804  0.26559238    -0.26700
C586        C  0.42134860  0.06199786  0.30804078    -0.14800
C587        C  0.41713391  0.08170498  0.32794873     0.35900
C588        C  0.40651021  0.09566997  0.30529231    -0.26100
C589        C  0.40045278  0.09057209  0.26328795    -0.15400
C590        C  0.40610358  0.07210129  0.24294140     0.37000
N591        N  0.39946575  0.06631972  0.20005023    -0.89600
H592        H  0.41971767  0.04286614  0.25022752     0.18100
H593        H  0.40179333  0.10970684  0.32075010     0.18100
N594        N  0.42218227  0.08638531  0.37128724    -0.88700
H595        H  0.40382800  0.05136672  0.19008386     0.35400
H596        H  0.41305109  0.08490072  0.18388365     0.40500
H597        H  0.40744506  0.06766014  0.38626143     0.40200
H598        H  0.41825710  0.10170313  0.38095694     0.35000
C599        C  0.32334996  0.03069166  0.12285956    -0.26700
C600        C  0.30645870  0.03845832  0.14333576    -0.14800
C601        C  0.27650664  0.02044131  0.14108052     0.35900
C602        C  0.26432528  0.99504139  0.11943742    -0.26100
C603        C  0.28140846  0.98692253  0.10074975    -0.15400
C604        C  0.31118220  0.00515004  0.10170987     0.37000
N605        N  0.32891991  0.99759319  0.08116469    -0.89600
H606        H  0.34628978  0.04440214  0.12387231     0.18100
H607        H  0.24140814  0.98106770  0.11856566     0.18100
N608        N  0.25792578  0.02726833  0.16022610    -0.88700
H609        H  0.35045688  0.01333351  0.08493145     0.35400
H610        H  0.32452218  0.99656860  0.04985200     0.40500
H611        H  0.26261286  0.04684901  0.14914400     0.40200
H612        H  0.26151244  0.02855412  0.19186225     0.35000
C613        C  0.37123897  0.19737163  0.05600788    -0.26700
C614        C  0.34554399  0.19564739  0.04747811    -0.14800
C615        C  0.32141773  0.17750785  0.07132570     0.35900
C616        C  0.32349854  0.16130806  0.10264238    -0.26100
C617        C  0.34914868  0.16286708  0.11096599    -0.15400
C618        C  0.37324529  0.18097026  0.08703472     0.37000
N619        N  0.39958036  0.18245564  0.09378985    -0.89600
H620        H  0.38983993  0.21121577  0.03782235     0.18100
H621        H  0.30491167  0.14748106  0.12086199     0.18100
N622        N  0.29488113  0.17547556  0.06379702    -0.88700
H623        H  0.41539465  0.19746160  0.07445615     0.35400
H624        H  0.39633907  0.16298520  0.08542243     0.40500
H625        H  0.29761561  0.19476504  0.07192080     0.40200
H626        H  0.27899673  0.16026271  0.08285544     0.35000
C627        C  0.37252607  0.18678295  0.30748339    -0.26700
C628        C  0.34734691  0.16101211  0.29827378    -0.14800
C629        C  0.32267459  0.15263832  0.32116496     0.35900
C630        C  0.32370264  0.17039076  0.35210083    -0.26100
C631        C  0.34876307  0.19635481  0.36087666    -0.15400
C632        C  0.37363440  0.20437414  0.33876558     0.37000
N633        N  0.39993643  0.23019621  0.34803666    -0.89600
H634        H  0.39165987  0.19320152  0.29043978     0.18100
H635        H  0.30458818  0.16391557  0.36923351     0.18100
N636        N  0.29663780  0.12628629  0.31304438    -0.88700
H637        H  0.41587248  0.23339939  0.32786054     0.35400
H638        H  0.40646696  0.22791660  0.37721136     0.40500
H639        H  0.28931665  0.12791203  0.28412889     0.40200
H640        H  0.28094107  0.12281637  0.33388300     0.35000
C641        C  0.41246165  0.33339002  0.02322465    -0.26700
C642        C  0.38300767  0.31693855  0.01658626    -0.14800
C643        C  0.36556418  0.32607841  0.03180851     0.35900
C644        C  0.37793088  0.35116738  0.05407305    -0.26100
C645        C  0.40722965  0.36726689  0.06152777    -0.15400
C646        C  0.42472306  0.35841291  0.04571623     0.37000
N647        N  0.45496387  0.37486656  0.05075770    -0.89600
H648        H  0.42595619  0.32662751  0.01126496     0.18100
H649        H  0.36459947  0.35820695  0.06580794     0.18100
N650        N  0.33542276  0.31011912  0.02405989    -0.88700
H651        H  0.45977986  0.37653770  0.08217195     0.35400
H652        H  0.46256803  0.39498126  0.03895191     0.40500
H653        H  0.33233323  0.31058189  0.99246057     0.40200
H654        H  0.32572669  0.31961441  0.03784232     0.35000
C655        C  0.09069738  0.40360321  0.44598871    -0.26700
C656        C  0.08766361  0.40028032  0.48874836    -0.14800
C657        C  0.07360689  0.41116979  0.50971724     0.35900
C658        C  0.06204361  0.42436119  0.48733506    -0.26100
C659        C  0.06429406  0.42693832  0.44444380    -0.15400
C660        C  0.07952739  0.41721694  0.42363411     0.37000
N661        N  0.08199526  0.41951537  0.37974314    -0.89600
H662        H  0.10132947  0.39500658  0.42991595     0.18100
H663        H  0.05025816  0.43174446  0.50327717     0.18100
N664        N  0.07111453  0.40886421  0.05321857    -0.88700
H665        H  0.09250777  0.40998059  0.36904022     0.35400
H666        H  0.09492323  0.44092975  0.37245192     0.40500
H667        H  0.05769118  0.38752623  0.06061196     0.40200
H668        H  0.06131706  0.41908458  0.06409766     0.35000
C669        C  0.03137518  0.28809716  0.14540017    -0.26700
C670        C  0.03173887  0.29632939  0.10456453    -0.14800
C671        C  0.00632475  0.29016499  0.08533923     0.35900
C672        C  0.98098879  0.27648639  0.10781888    -0.26100
C673        C  0.98065653  0.26919420  0.14929568    -0.15400
C674        C  0.00599190  0.27422328  0.16792901     0.37000
N675        N  0.00626212  0.26671648  0.21012412    -0.89600
H676        H  0.05112274  0.29309498  0.15997853     0.18100
H677        H  0.96159104  0.27254966  0.09332108     0.18100
N678        N  0.00662858  0.29915509  0.04380378    -0.88700
H679        H  0.02690283  0.27331638  0.21963156     0.35400
H680        H  0.99450957  0.24471101  0.21198716     0.40500
H681        H  0.01862405  0.32120828  0.04337489     0.40200
H682        H  0.98612922  0.29298621  0.03416506     0.35000
C683        C  0.32928244  0.41048351  0.23280075    -0.26700
C684        C  0.31291534  0.38097487  0.23645687    -0.14800
C685        C  0.32252203  0.36480879  0.21812592     0.35900
C686        C  0.34763609  0.37844179  0.19539658    -0.26100
C687        C  0.36345664  0.40778501  0.19055115    -0.15400
C688        C  0.35446416  0.42410131  0.20973605     0.37000
N689        N  0.37141428  0.45434121  0.20712280    -0.89600
H690        H  0.32219033  0.42290428  0.24743390     0.18100
H691        H  0.35494055  0.36604243  0.18121934     0.18100
N692        N  0.30702221  0.33465318  0.22304857    -0.88700
H693        H  0.36259837  0.46316998  0.22483484     0.35400
H694        H  0.37060415  0.45999009  0.17673078     0.40500
H695        H  0.30804436  0.33033101  0.25401594     0.40200
H696        H  0.31670571  0.32599758  0.20687649     0.35000
C697        C  0.25637787  0.26958793  0.36807578    -0.26700
C698        C  0.27214436  0.29852887  0.35887153    -0.14800
C699        C  0.30151384  0.31462720  0.36821719     0.35900
C700        C  0.31437381  0.30143986  0.38647158    -0.26100
C701        C  0.29865180  0.27261097  0.39620422    -0.15400
C702        C  0.26920442  0.25659733  0.38731558     0.37000
N703        N  0.25192387  0.22715131  0.39679399    -0.89600
H704        H  0.23385392  0.25712503  0.36104963     0.18100
H705        H  0.33691309  0.31389749  0.39346280     0.18100
N706        N  0.31831125  0.34427163  0.35872192    -0.88700
H707        H  0.25220221  0.22458173  0.42848053     0.35400
H708        H  0.26066490  0.21682448  0.38264730     0.40500
H709        H  0.31882940  0.34642917  0.32689648     0.40200
H710        H  0.33940066  0.35309251  0.36847837     0.35000
C711        C  0.15533408  0.32110413  0.15170619    -0.26700
C712        C  0.15782943  0.34700497  0.14333646    -0.14800
C713        C  0.17583119  0.37042550  0.16838825     0.35900
C714        C  0.19065301  0.36729336  0.20108475    -0.26100
C715        C  0.18835334  0.34144463  0.20912361    -0.15400
C716        C  0.17013725  0.31797595  0.18436087     0.37000
N717        N  0.16665129  0.29103662  0.19223566    -0.89600
H718        H  0.14147940  0.30295096  0.13284701     0.18100
H719        H  0.20450636  0.38541281  0.22000973     0.18100
N720        N  0.17917369  0.39731168  0.16066622    -0.88700
H721        H  0.15335100  0.27631612  0.17022213     0.35400
H722        H  0.15621774  0.28366497  0.22028634     0.40500
H723        H  0.18988146  0.40491846  0.13285956     0.40200
H724        H  0.19219579  0.41192458  0.18299879     0.35000
C725        C  0.15128770  0.31903288  0.44183493    -0.26700
C726        C  0.15804183  0.34520508  0.45715550    -0.14800
C727        C  0.18165884  0.37006475  0.44093217     0.35900
C728        C  0.19804343  0.36827702  0.41022648    -0.26100
C729        C  0.19133494  0.34211201  0.39495410    -0.15400
C730        C  0.16763413  0.31724709  0.41103114     0.37000
N731        N  0.16012941  0.29006494  0.39655540    -0.89600
H732        H  0.13330180  0.29974117  0.45398434     0.18100
H733        H  0.21594970  0.38758913  0.39797847     0.18100
N734        N  0.18891552  0.39726470  0.45495856    -0.88700
H735        H  0.13929760  0.27975464  0.38528398     0.35400
H736        H  0.16058814  0.27846321  0.42151260     0.40500
H737        H  0.18833004  0.40863940  0.42976859     0.40200
H738        H  0.20974782  0.40780244  0.46622711     0.35000
In739      In  0.23947327  0.34109843  0.80164482     1.36900
C740        C  0.28672125  0.36844222  0.75968941     0.77200
O741        O  0.26768817  0.33868537  0.84701583    -0.61200
O742        O  0.23824525  0.30096891  0.81453508    -0.52100
C743        C  0.20948941  0.34244173  0.86217886     0.69900
O744        O  0.23289953  0.36414982  0.85125945    -0.47000
C745        C  0.20686487  0.34121800  0.74257807     0.74600
O746        O  0.28141252  0.38057356  0.78769685    -0.58900
O747        O  0.20730591  0.31935278  0.75157793    -0.49000
O748        O  0.26715076  0.34323274  0.75248919    -0.55300
C749        C  0.25881647  0.31314195  0.83991885     0.84800
O750        O  0.20209051  0.32031943  0.84216618    -0.57200
O751        O  0.22307293  0.36258632  0.76428894    -0.60500
In752      In  0.10920185  0.34859894  0.54814674     1.36900
C753        C  0.05975738  0.31478797  0.58403624     0.77200
O754        O  0.12543518  0.32752858  0.58713069    -0.61200
O755        O  0.14141249  0.37083063  0.59866257    -0.52100
C756        C  0.14018321  0.34610294  0.99020126     0.69900
O757        O  0.11616717  0.32477219  0.99974834    -0.47000
C758        C  0.09634943  0.38264566  0.51022063     0.74600
O759        O  0.06596994  0.30845581  0.55030753    -0.58900
O760        O  0.11021186  0.38945188  0.54370064    -0.49000
O761        O  0.07870504  0.33812007  0.59892709    -0.55300
C762        C  0.14162514  0.34899416  0.60859495     0.84800
O763        O  0.14805724  0.36817283  0.51019219    -0.57200
O764        O  0.08825717  0.35756745  0.99660370    -0.60500
In765      In  0.34412395  0.24341928  0.95236356     1.36900
C766        C  0.37133633  0.29092511  0.49372014     0.77200
O767        O  0.33964817  0.27036172  0.90723254    -0.61200
O768        O  0.30262260  0.24000360  0.94030047    -0.52100
C769        C  0.34710010  0.21349168  0.89348101     0.69900
O770        O  0.36827328  0.23745622  0.90358777    -0.47000
C771        C  0.34549981  0.21330897  0.51324882     0.74600
O772        O  0.38301732  0.28576548  0.96583041    -0.58900
O773        O  0.32299049  0.21194060  0.50145399    -0.49000
O774        O  0.34636861  0.27083147  0.50141363    -0.55300
C775        C  0.31367066  0.26020525  0.91463658     0.84800
O776        O  0.32460281  0.20571334  0.91309485    -0.57200
O777        O  0.36752597  0.23029633  0.49312149    -0.60500
In778      In  0.35054562  0.11390648  0.70482646     1.36900
C779        C  0.32137588  0.06559411  0.66531987     0.77200
O780        O  0.32828820  0.12806378  0.66391499    -0.61200
O781        O  0.37299745  0.14746782  0.65728015    -0.52100
C782        C  0.34743085  0.14284724  0.76532187     0.69900
O783        O  0.32687018  0.11828122  0.75627416    -0.47000
C784        C  0.38398718  0.10065995  0.74228212     0.74600
O785        O  0.31012970  0.07214877  0.69306127    -0.58900
O786        O  0.39206643  0.11636548  0.71071382    -0.49000
O787        O  0.34713183  0.08393835  0.65840577    -0.55300
C788        C  0.35052146  0.14595609  0.64504084     0.84800
O789        O  0.36914315  0.15203612  0.74314881    -0.57200
O790        O  0.35950408  0.09281217  0.75502916    -0.60500
In791      In  0.57708072  0.57631603  0.87533444     1.36900
C792        C  0.59744010  0.62401458  0.91590000     0.77200
O793        O  0.53855871  0.55858777  0.91351325    -0.61200
O794        O  0.56671405  0.54424791  0.92449030    -0.52100
C795        C  0.54358623  0.54418802  0.81578493     0.69900
O796        O  0.54700029  0.56802316  0.82340367    -0.47000
C797        C  0.62326269  0.59160829  0.83327892     0.74600
O798        O  0.57802801  0.61629740  0.88894061    -0.58900
O799        O  0.61723573  0.57680611  0.86570334    -0.49000
O800        O  0.60580771  0.60726131  0.92145811    -0.55300
C801        C  0.54399189  0.54285964  0.93431414     0.84800
O802        O  0.55719791  0.53728796  0.83910446    -0.57200
O803        O  0.60578854  0.59853363  0.82323404    -0.60500
In804      In  0.43756736  0.44054570  0.62504205     1.36900
C805        C  0.41923047  0.39413964  0.58421823     0.77200
O806        O  0.40732003  0.41182293  0.67176205    -0.61200
O807        O  0.39848993  0.44043572  0.64142867    -0.52100
C808        C  0.47174250  0.47328440  0.68319706     0.69900
O809        O  0.46970629  0.45028890  0.67412403    -0.47000
C810        C  0.46919272  0.47278856  0.56428619     0.74600
O811        O  0.43783518  0.40179524  0.61238100    -0.58900
O812        O  0.44598189  0.47063164  0.57355017    -0.49000
O813        O  0.41020647  0.41030161  0.57750278    -0.55300
C814        C  0.39094890  0.42089893  0.66778311     0.84800
O815        O  0.45600832  0.47880598  0.66244144    -0.57200
O816        O  0.47573591  0.45850825  0.58659519    -0.60500
In817      In  0.90510130  0.67188713  0.95688065     1.36900
C818        C  0.95293511  0.70414786  0.91675491     0.77200
O819        O  0.92581501  0.66397949  0.50980357    -0.61200
O820        O  0.90427260  0.63157210  0.96548304    -0.52100
C821        C  0.87344038  0.67394754  0.51423872     0.69900
O822        O  0.89835777  0.69461761  0.50675001    -0.47000
C823        C  0.87217328  0.67088949  0.89770047     0.74600
O824        O  0.94711048  0.71254536  0.94891652    -0.58900
O825        O  0.87227979  0.64899819  0.90777374    -0.49000
O826        O  0.93449685  0.67930698  0.90599344    -0.55300
C827        C  0.91854823  0.63989044  0.99858843     0.84800
O828        O  0.86512688  0.65241950  0.49232488    -0.57200
O829        O  0.88891900  0.69271198  0.91819563    -0.60500
In830      In  0.77506898  0.67918697  0.70380744     1.36900
C831        C  0.72514809  0.64465254  0.73817754     0.77200
O832        O  0.78969131  0.65669110  0.74331936    -0.61200
O833        O  0.80736525  0.70035418  0.75407285    -0.52100
C834        C  0.80562928  0.67648243  0.64502949     0.69900
O835        O  0.78000571  0.65688627  0.65099921    -0.47000
C836        C  0.76589129  0.71698319  0.66931016     0.74600
O837        O  0.73271046  0.63770950  0.70628185    -0.58900
O838        O  0.77729849  0.72075563  0.70439347    -0.49000
O839        O  0.74277526  0.66905269  0.75126046    -0.55300
C840        C  0.80650465  0.67807327  0.76445245     0.84800
O841        O  0.81506000  0.69710255  0.66917282    -0.57200
O842        O  0.75955188  0.69419598  0.65244835    -0.60500
In843      In  0.66348900  0.90308573  0.79792276     1.36900
C844        C  0.69442313  0.95314222  0.83307829     0.77200
O845        O  0.65325087  0.92140131  0.74512890    -0.61200
O846        O  0.62153148  0.90014590  0.79097912    -0.52100
C847        C  0.66494262  0.87147955  0.73971417     0.69900
O848        O  0.68572815  0.89637913  0.74666273    -0.47000
C849        C  0.66457336  0.87266403  0.85967677     0.74600
O850        O  0.70458742  0.94553807  0.80511187    -0.58900
O851        O  0.64189406  0.87102297  0.84815541    -0.49000
O852        O  0.66904199  0.93504074  0.84249935    -0.55300
C853        C  0.62858655  0.91347867  0.75715359     0.84800
O854        O  0.64397678  0.86310195  0.76313137    -0.57200
O855        O  0.68639296  0.89007543  0.83960386    -0.60500
In856      In  0.67515261  0.77563109  0.55038196     1.36900
C857        C  0.64697411  0.72629298  0.51191168     0.77200
O858        O  0.65188484  0.78711666  0.50678572    -0.61200
O859        O  0.69698347  0.81005211  0.00376176    -0.52100
C860        C  0.66874919  0.80414714  0.60888101     0.69900
O861        O  0.65009794  0.77829158  0.60257635    -0.47000
C862        C  0.71364494  0.76868093  0.58786619     0.74600
O863        O  0.63483921  0.73305591  0.53788655    -0.58900
O864        O  0.71847081  0.78135746  0.55370796    -0.49000
O865        O  0.67309721  0.74417331  0.00775134    -0.55300
C866        C  0.67397677  0.80665466  0.99002262     0.84800
O867        O  0.69000179  0.81429951  0.58567284    -0.57200
O868        O  0.68963582  0.76050983  0.60298899    -0.60500
In869      In  0.01336156  0.44838440  0.88106750     1.36900
C870        C  0.98442026  0.39952808  0.84354392     0.77200
O871        O  0.99041406  0.46034983  0.83791636    -0.61200
O872        O  0.03530987  0.48132568  0.83203968    -0.52100
C873        C  0.01109287  0.47898122  0.93973522     0.69900
O874        O  0.98968725  0.45503260  0.93005703    -0.47000
C875        C  0.04614176  0.43525804  0.92171651     0.74600
O876        O  0.97253033  0.40691715  0.86902542    -0.58900
O877        O  0.05437986  0.45000581  0.88911903    -0.49000
O878        O  0.01059676  0.41698052  0.83808216    -0.55300
C879        C  0.01239773  0.47859519  0.81901541     0.84800
O880        O  0.03310034  0.48695030  0.91882530    -0.57200
O881        O  0.02161602  0.42811676  0.93361198    -0.60500
In882      In  0.00242354  0.57577555  0.62775864     1.36900
C883        C  0.03478066  0.62562213  0.66177965     0.77200
O884        O  0.99171142  0.59305922  0.57412842    -0.61200
O885        O  0.96151528  0.57519659  0.62251679    -0.52100
C886        C  0.00579344  0.54600140  0.56877436     0.69900
O887        O  0.02645134  0.57050524  0.57775047    -0.47000
C888        C  0.00266831  0.54441917  0.68888815     0.74600
O889        O  0.04465048  0.61638962  0.63594654    -0.58900
O890        O  0.97994400  0.54239490  0.67660494    -0.49000
O891        O  0.00870299  0.60955701  0.66952340    -0.55300
C892        C  0.96810114  0.58740557  0.58780147     0.84800
O893        O  0.98396897  0.53705058  0.59055694    -0.57200
O894        O  0.02468606  0.56277364  0.67027036    -0.60500
In895      In  0.90909263  0.24619957  0.71521725     1.36900
C896        C  0.95495996  0.26051179  0.67296744     0.77200
O897        O  0.88890031  0.20648980  0.68041597    -0.61200
O898        O  0.87718217  0.23610128  0.66531785    -0.52100
C899        C  0.87747065  0.21354998  0.77602969     0.69900
O900        O  0.90048110  0.21558681  0.76608759    -0.47000
C901        C  0.93059881  0.29567810  0.75153156     0.74600
O902        O  0.94923090  0.24681828  0.70640698    -0.58900
O903        O  0.91048783  0.28685072  0.72550513    -0.49000
O904        O  0.93685561  0.26629634  0.66147544    -0.55300
C905        C  0.87407760  0.21238728  0.65797794     0.84800
O906        O  0.87151233  0.22883501  0.75522017    -0.57200
O907        O  0.93895663  0.27903033  0.75817941    -0.60500
In908      In  0.77346451  0.10467453  0.96514862     1.36900
C909        C  0.75432450  0.05848014  0.92184675     0.77200
O910        O  0.74176514  0.07471229  0.50991306    -0.61200
O911        O  0.73351797  0.10393732  0.97825082    -0.52100
C912        C  0.80405695  0.13556424  0.52838579     0.69900
O913        O  0.80344357  0.11339040  0.51831865    -0.47000
C914        C  0.80653547  0.13921293  0.90704325     0.74600
O915        O  0.77386434  0.06582830  0.94857116    -0.58900
O916        O  0.78257285  0.13576254  0.91497115    -0.49000
O917        O  0.74590931  0.07527869  0.91707497    -0.55300
C918        C  0.72500444  0.08320810  0.50411983     0.84800
O919        O  0.78904115  0.14128458  0.50608979    -0.57200
O920        O  0.81312229  0.12498088  0.92933732    -0.60500
In921      In  0.43989049  0.00881941  0.86901397     1.36900
C922        C  0.39217876  0.97729373  0.90912036     0.77200
O923        O  0.45442396  0.98677893  0.90876579    -0.61200
O924        O  0.47219926  0.03062434  0.91927189    -0.52100
C925        C  0.46960491  0.00347760  0.81161494     0.69900
O926        O  0.44444312  0.98385599  0.82007534    -0.47000
C927        C  0.42843018  0.04332575  0.82995964     0.74600
O928        O  0.39690011  0.96898252  0.87592128    -0.58900
O929        O  0.44460844  0.05119846  0.86118379    -0.49000
O930        O  0.41120361  0.00186146  0.92005281    -0.55300
C931        C  0.47110488  0.00822497  0.92994296     0.84800
O932        O  0.47892916  0.02566439  0.83237201    -0.57200
O933        O  0.41832333  0.01807089  0.81962263    -0.60500
In934      In  0.56669299  0.99566002  0.62276572     1.36900
C935        C  0.61642715  0.02456401  0.58572855     0.77200
O936        O  0.58615161  0.98506048  0.67361287    -0.61200
O937        O  0.56079636  0.95278566  0.63001360    -0.52100
C938        C  0.53858683  0.99947363  0.68379622     0.69900
O939        O  0.56352057  0.01940728  0.67471455    -0.47000
C940        C  0.53522070  0.99803594  0.56317617     0.74600
O941        O  0.60956652  0.03556037  0.61334658    -0.58900
O942        O  0.53393640  0.97539220  0.57267114    -0.49000
O943        O  0.59773733  0.99927625  0.57753845    -0.55300
C944        C  0.57634799  0.96010485  0.66196436     0.84800
O945        O  0.52843600  0.97806141  0.66102168    -0.57200
O946        O  0.55267972  0.01914988  0.58431327    -0.60500
In947      In  0.10845979  0.77331106  0.80026992     1.36900
C948        C  0.05973453  0.75745141  0.83442611     0.77200
O949        O  0.08361866  0.74573261  0.74917921    -0.61200
O950        O  0.10542256  0.73244123  0.78824002    -0.52100
C951        C  0.14477957  0.80678072  0.74490486     0.69900
O952        O  0.12252877  0.80681106  0.75300309    -0.47000
C953        C  0.14047479  0.80419870  0.86169112     0.74600
O954        O  0.06857239  0.77387540  0.80362977    -0.58900
O955        O  0.13683571  0.78028386  0.85404464    -0.49000
O956        O  0.07578254  0.74932828  0.84702607    -0.55300
C957        C  0.08944441  0.72727136  0.75711220     0.84800
O958        O  0.14807242  0.78949422  0.76544915    -0.57200
O959        O  0.12729633  0.81145209  0.83809701    -0.60500
In960      In  0.24671598  0.90802773  0.55153266     1.36900
C961        C  0.26817928  0.95863496  0.58234681     0.77200
O962        O  0.21314110  0.89422186  0.59710637    -0.61200
O963        O  0.24062314  0.87869196  0.60351236    -0.52100
C964        C  0.21038661  0.87422980  0.99618873     0.69900
O965        O  0.21449151  0.89838513  0.00302693    -0.47000
C966        C  0.29084795  0.92219088  0.50612775     0.74600
O967        O  0.24555653  0.94704751  0.56099650    -0.58900
O968        O  0.28698709  0.90952188  0.54018549    -0.49000
O969        O  0.27913100  0.94411136  0.58786651    -0.55300
C970        C  0.21961345  0.87910800  0.61725887     0.84800
O971        O  0.22459170  0.86764832  0.01873430    -0.57200
O972        O  0.27251107  0.92785189  0.99592330    -0.60500
C973        C  0.20445697  0.83961333  0.66683928    -0.26700
C974        C  0.20286590  0.86251477  0.65313500    -0.14800
C975        C  0.18355886  0.86805437  0.67183780     0.35900
C976        C  0.16480315  0.84936598  0.70144862    -0.26100
C977        C  0.16547810  0.82579539  0.71396455    -0.15400
C978        C  0.18589882  0.82108113  0.69706941     0.37000
N979        N  0.18729289  0.79720984  0.70972327    -0.89600
H980        H  0.21944327  0.83551084  0.65281911     0.18100
H981        H  0.14968226  0.85342112  0.71511889     0.18100
N982        N  0.18302531  0.89265798  0.66079077    -0.88700
H983        H  0.20392019  0.79728006  0.69498792     0.35400
H984        H  0.16853884  0.77904008  0.69997433     0.40500
H985        H  0.20244991  0.91030639  0.66994764     0.40200
H986        H  0.16727593  0.89331391  0.67693694     0.35000
C987        C  0.16709985  0.81086936  0.92665974    -0.26700
C988        C  0.15850430  0.82239184  0.89582416    -0.14800
C989        C  0.16675785  0.85098197  0.89846400     0.35900
C990        C  0.18271662  0.86704062  0.93239015    -0.26100
C991        C  0.19140605  0.85556098  0.96314864    -0.15400
C992        C  0.18338657  0.82706395  0.96035103     0.37000
N993        N  0.19166943  0.81456341  0.99166895    -0.89600
H994        H  0.16079609  0.78899493  0.92476241     0.18100
H995        H  0.18916950  0.88896655  0.93410991     0.18100
N996        N  0.15947558  0.86387344  0.86639603    -0.88700
H997        H  0.18463863  0.79371305  0.98439558     0.35400
H998        H  0.18062723  0.81338801  0.51887831     0.40500
H999        H  0.17036260  0.86454783  0.84004340     0.40200
H1000       H  0.16669328  0.88479348  0.87354678     0.35000
C1001       C  0.34010060  0.94340575  0.91471409    -0.26700
C1002       C  0.36659810  0.95999074  0.93399049    -0.14800
C1003       C  0.36835349  0.96139242  0.97722617     0.35900
C1004       C  0.34282400  0.94709094  0.50053707    -0.26100
C1005       C  0.31674780  0.93289779  0.98085817    -0.15400
C1006       C  0.31512715  0.93003598  0.93770872     0.37000
N1007       N  0.28850573  0.91352218  0.91656345    -0.89600
H1008       H  0.33871582  0.94184621  0.88157589     0.18100
H1009       H  0.34400987  0.94909916  0.53363370     0.18100
N1010       N  0.39506400  0.97588980  0.49777797    -0.88700
H1011       H  0.27638761  0.92242358  0.92112538     0.35400
H1012       H  0.27771529  0.89316836  0.92903843     0.40500
H1013       H  0.40629238  0.96657962  0.99091877     0.40200
H1014       H  0.39261721  0.97470768  0.52961319     0.35000
C1015       C  0.47944287  0.97956363  0.97964609    -0.26700
C1016       C  0.48747847  0.00641991  0.96470745    -0.14800
C1017       C  0.51047437  0.03041104  0.48338743     0.35900
C1018       C  0.52537728  0.02708892  0.51581326    -0.26100
C1019       C  0.51806180  0.00020035  0.52978112    -0.15400
C1020       C  0.49409057  0.97617696  0.01223768     0.37000
N1021       N  0.48478323  0.94842812  0.02745072    -0.89600
H1022       H  0.46135240  0.96098338  0.96610333     0.18100
H1023       H  0.54315579  0.04569285  0.52981699     0.18100
N1024       N  0.51874277  0.05816367  0.46945897    -0.88700
H1025       H  0.46742371  0.93305161  0.01043348     0.35400
H1026       H  0.47836386  0.94650461  0.55601502     0.40500
H1027       H  0.52719375  0.06028298  0.93882293     0.40200
H1028       H  0.53550508  0.07358913  0.48729501     0.35000
C1029       C  0.51521876  0.02424230  0.77451926    -0.26700
C1030       C  0.48724917  0.00125692  0.78006152    -0.14800
C1031       C  0.47690747  0.97715991  0.75526376     0.35900
C1032       C  0.49433672  0.97718993  0.72450056    -0.26100
C1033       C  0.52195268  0.00058536  0.71800563    -0.15400
C1034       C  0.53272391  0.02419158  0.74395397     0.37000
N1035       N  0.56128994  0.04800200  0.73947608    -0.89600
H1036       H  0.52347703  0.04263695  0.79385214     0.18100
H1037       H  0.48611692  0.95874675  0.70528062     0.18100
N1038       N  0.44873588  0.95289416  0.76083471    -0.88700
H1039       H  0.56635530  0.06267172  0.76276106     0.35400
H1040       H  0.56209781  0.05817168  0.71202633     0.40500
H1041       H  0.44842401  0.94389958  0.78921373     0.40200
H1042       H  0.44410118  0.93755342  0.73883325     0.35000
C1043       C  0.68309253  0.04002721  0.53107238    -0.26700
C1044       C  0.69717897  0.06917475  0.52458881    -0.14800
C1045       C  0.68482022  0.08396393  0.53837948     0.35900
C1046       C  0.65842079  0.06907050  0.55853585    -0.26100
C1047       C  0.64414753  0.03973353  0.56453115    -0.15400
C1048       C  0.65661767  0.02506530  0.55031903     0.37000
N1049       N  0.64284447  0.99513735  0.55647169    -0.89600
H1050       H  0.69262758  0.02870653  0.52037402     0.18100
H1051       H  0.64887392  0.08033318  0.56937857     0.18100
N1052       N  0.69933953  0.11397410  0.53270909    -0.88700
H1053       H  0.65631215  0.98828498  0.54846706     0.35400
H1054       H  0.62566431  0.98529404  0.53601775     0.40500
H1055       H  0.71822854  0.12318758  0.54973459     0.40200
H1056       H  0.68741602  0.12163168  0.54476627     0.35000
C1057       C  0.82179479  0.17932422  0.56863768    -0.26700
C1058       C  0.82111639  0.15413178  0.56301380    -0.14800
C1059       C  0.83702882  0.14776986  0.58983461     0.35900
C1060       C  0.85390861  0.16715929  0.62052557    -0.26100
C1061       C  0.85507129  0.19267627  0.62556580    -0.15400
C1062       C  0.83844165  0.19852277  0.59928803     0.37000
N1063       N  0.83805144  0.22375968  0.60247150    -0.89600
H1064       H  0.80952690  0.18448959  0.54861237     0.18100
H1065       H  0.86628751  0.16220499  0.64064791     0.18100
N1066       N  0.83618128  0.12182626  0.58590477    -0.88700
H1067       H  0.85861084  0.24114237  0.59788451     0.35400
H1068       H  0.83116566  0.22464664  0.63176930     0.40500
H1069       H  0.81568171  0.10538429  0.59360505     0.40200
H1070       H  0.84993413  0.12094531  0.60705736     0.35000
C1071       C  0.81464694  0.17050824  0.84753904    -0.26700
C1072       C  0.82520444  0.15823122  0.87390312    -0.14800
C1073       C  0.85308050  0.16419621  0.86740716     0.35900
C1074       C  0.86949433  0.18230222  0.83557038    -0.26100
C1075       C  0.85897204  0.19468265  0.80936617    -0.15400
C1076       C  0.83092622  0.18832199  0.81539587     0.37000
N1077       N  0.81795026  0.19896110  0.78905011    -0.89600
H1078       H  0.79330530  0.16600029  0.85153163     0.18100
H1079       H  0.89077595  0.18669018  0.83136800     0.18100
N1080       N  0.86553568  0.15238279  0.89240860    -0.88700
H1081       H  0.81815700  0.19283669  0.75891747     0.35400
H1082       H  0.82943036  0.22091740  0.79092978     0.40500
H1083       H  0.85325262  0.13038549  0.88978734     0.40200
H1084       H  0.86594773  0.15817005  0.92281381     0.35000
C1085       C  0.07094968  0.65654543  0.71298672    -0.26700
C1086       C  0.05187746  0.65315795  0.68170810    -0.14800
C1087       C  0.04661242  0.67475514  0.67384853     0.35900
C1088       C  0.05952384  0.69861465  0.69872442    -0.26100
C1089       C  0.07776768  0.70175604  0.73129365    -0.15400
C1090       C  0.08398115  0.68065948  0.73806476     0.37000
N1091       N  0.10311543  0.68350417  0.77036358    -0.89600
H1092       H  0.07469913  0.63974934  0.71898827     0.18100
H1093       H  0.05480438  0.71472768  0.69260903     0.18100
N1094       N  0.02806811  0.67313022  0.64135661    -0.88700
H1095       H  0.10636011  0.66679948  0.76974296     0.35400
H1096       H  0.09320363  0.68179432  0.79823715     0.40500
H1097       H  0.02014106  0.65487955  0.62397208     0.40200
H1098       H  0.04023704  0.68997566  0.62129443     0.35000
C1099       C  0.96853629  0.33137002  0.79688833    -0.26700
C1100       C  0.94387144  0.32302240  0.77356511    -0.14800
C1101       C  0.93234112  0.34022262  0.77353958     0.35900
C1102       C  0.94510671  0.36462650  0.79817272    -0.26100
C1103       C  0.96954522  0.37250841  0.82153777    -0.15400
C1104       C  0.98144298  0.35583034  0.82074279     0.37000
N1105       N  0.00651308  0.36371586  0.84458752    -0.89600
H1106       H  0.97782409  0.31862138  0.79683606     0.18100
H1107       H  0.93654611  0.37802510  0.79814711     0.18100
N1108       N  0.90783886  0.33295941  0.74883102    -0.88700
H1109       H  0.01281433  0.34938211  0.84032550     0.35400
H1110       H  0.00124222  0.36247988  0.87553595     0.40500
H1111       H  0.91390618  0.33510149  0.71812273     0.40200
H1112       H  0.90162702  0.34732900  0.75342883     0.35000
C1113       C  0.98472436  0.49334646  0.48218223    -0.26700
C1114       C  0.01038950  0.49647928  0.97274860    -0.14800
C1115       C  0.03498583  0.51602285  0.99539301     0.35900
C1116       C  0.03296506  0.53202895  0.02622000    -0.26100
C1117       C  0.00702267  0.52902688  0.53542973    -0.15400
C1118       C  0.98244617  0.50890968  0.51337478     0.37000
N1119       N  0.95493535  0.50410852  0.52124507    -0.89600
H1120       H  0.96574566  0.47825941  0.46535688     0.18100
H1121       H  0.05189181  0.54676311  0.04345497     0.18100
N1122       N  0.06207757  0.51945850  0.98889756    -0.88700
H1123       H  0.95612806  0.52328333  0.51891750     0.35400
H1124       H  0.94883787  0.49603550  0.55092346     0.40500
H1125       H  0.06889317  0.52720057  0.95929440     0.40200
H1126       H  0.05985723  0.49978741  0.99202082     0.35000
C1127       C  0.03106511  0.53626661  0.73974337    -0.26700
C1128       C  0.00429961  0.52704661  0.72215224    -0.14800
C1129       C  0.98053152  0.50119962  0.73566378     0.35900
C1130       C  0.98397444  0.48574685  0.76660689    -0.26100
C1131       C  0.01069181  0.49524427  0.78467850    -0.15400
C1132       C  0.03453322  0.52079919  0.77053803     0.37000
N1133       N  0.06245270  0.53198697  0.78720136    -0.89600
H1134       H  0.04963565  0.55591313  0.72970472     0.18100
H1135       H  0.96544956  0.46604175  0.77658294     0.18100
N1136       N  0.95278131  0.48975598  0.71820436    -0.88700
H1137       H  0.06855718  0.51769411  0.78206193     0.35400
H1138       H  0.06191781  0.53481304  0.81889475     0.40500
H1139       H  0.95389869  0.48754090  0.68656970     0.40200
H1140       H  0.94618778  0.50371049  0.72350264     0.35000
C1141       C  0.57987743  0.93895904  0.72677662    -0.26700
C1142       C  0.58389757  0.94188590  0.68409260    -0.14800
C1143       C  0.59958504  0.93181484  0.66528187     0.35900
C1144       C  0.61246147  0.92107645  0.68996511    -0.26100
C1145       C  0.61013829  0.92000318  0.73286247    -0.15400
C1146       C  0.59274103  0.92798687  0.75141972     0.37000
N1147       N  0.58952263  0.92649177  0.79520843    -0.89600
H1148       H  0.56788597  0.94670078  0.74116503     0.18100
H1149       H  0.62557315  0.91467882  0.67548832     0.18100
N1150       N  0.60497778  0.93412143  0.62194278    -0.88700
H1151       H  0.57568923  0.93282031  0.80383257     0.35400
H1152       H  0.60928946  0.94098224  0.80809951     0.40500
H1153       H  0.59634675  0.94413815  0.60629750     0.40200
H1154       H  0.59501510  0.91366954  0.61028795     0.35000
C1155       C  0.68524650  0.86664667  0.67533880    -0.26700
C1156       C  0.66491013  0.85369531  0.70625064    -0.14800
C1157       C  0.64465090  0.82431495  0.70404550     0.35900
C1158       C  0.64574675  0.80861309  0.67143936    -0.26100
C1159       C  0.66664374  0.82154732  0.64108351    -0.15400
C1160       C  0.68618986  0.85110801  0.64264209     0.37000
N1161       N  0.70699880  0.86543093  0.61100539    -0.89600
H1162       H  0.70037791  0.88920430  0.67636092     0.18100
H1163       H  0.63060279  0.78606484  0.67027385     0.18100
N1164       N  0.62329554  0.81039171  0.73507552    -0.88700
H1165       H  0.72019515  0.88691503  0.61741236     0.35400
H1166       H  0.69607302  0.86397852  0.58389820     0.40500
H1167       H  0.63363602  0.81135413  0.76254227     0.40200
H1168       H  0.60968947  0.78899628  0.72831007     0.35000
C1169       C  0.69268775  0.86545969  0.91244030    -0.26700
C1170       C  0.66613813  0.85580034  0.89382058    -0.14800
C1171       C  0.64235016  0.82990607  0.90720704     0.35900
C1172       C  0.64565153  0.81452728  0.93839994    -0.26100
C1173       C  0.67226468  0.82404099  0.95677791    -0.15400
C1174       C  0.69603556  0.85001228  0.94347294     0.37000
N1175       N  0.72378855  0.86150326  0.96094153    -0.89600
H1176       H  0.71117769  0.88529720  0.90277156     0.18100
H1177       H  0.62713293  0.79468610  0.94797909     0.18100
N1178       N  0.61475342  0.81817196  0.88905352    -0.88700
H1179       H  0.73043052  0.84758829  0.95566333     0.35400
H1180       H  0.72271591  0.86383082  0.99257392     0.40500
H1181       H  0.61624615  0.81594952  0.85754148     0.40200
H1182       H  0.60784919  0.83194464  0.89386779     0.35000
C1183       C  0.74012526  0.99511247  0.85870803    -0.26700
C1184       C  0.71045177  0.98088576  0.85383517    -0.14800
C1185       C  0.69584165  0.99271970  0.87065384     0.35900
C1186       C  0.71091168  0.01770418  0.89323401    -0.26100
C1187       C  0.74036924  0.03159498  0.89906541    -0.15400
C1188       C  0.75518880  0.02027228  0.88129102     0.37000
N1189       N  0.78542447  0.03418127  0.88472544    -0.89600
H1190       H  0.75158169  0.98638488  0.84556701     0.18100
H1191       H  0.69950128  0.02649177  0.90639714     0.18100
N1192       N  0.66575180  0.97958518  0.86421387    -0.88700
H1193       H  0.79083123  0.03544821  0.91568191     0.35400
H1194       H  0.79458624  0.05469037  0.87302682     0.40500
H1195       H  0.66237971  0.98059245  0.83273462     0.40200
H1196       H  0.65827326  0.99081748  0.87883934     0.35000
C1197       C  0.73566038  0.76281916  0.65089025    -0.26700
C1198       C  0.73334338  0.76193941  0.60791640    -0.14800
C1199       C  0.74641943  0.75065735  0.58528190     0.35900
C1200       C  0.75898219  0.73792306  0.60626469    -0.26100
C1201       C  0.75910660  0.73660435  0.64931815    -0.15400
C1202       C  0.74889171  0.75070155  0.67186678     0.37000
N1203       N  0.75003535  0.75084832  0.71590555    -0.89600
H1204       H  0.72602701  0.77194753  0.66819945     0.18100
H1205       H  0.76734750  0.72758966  0.58889521     0.18100
N1206       N  0.74515419  0.75034422  0.54122143    -0.88700
H1207       H  0.74048419  0.76103654  0.72778196     0.35400
H1208       H  0.77144366  0.76294987  0.72457168     0.40500
H1209       H  0.72392853  0.73673734  0.53250862     0.40200
H1210       H  0.75640823  0.74191056  0.52929078     0.35000
C1211       C  0.93788807  0.60906928  0.50085164    -0.26700
C1212       C  0.92659535  0.62232111  0.52228317    -0.14800
C1213       C  0.92566223  0.62088942  0.56560555     0.35900
C1214       C  0.93721914  0.60712962  0.58655766    -0.26100
C1215       C  0.95064009  0.59590490  0.56508664    -0.15400
C1216       C  0.95030189  0.59623780  0.52175956     0.37000
N1217       N  0.96318206  0.58410087  0.49915138    -0.89600
H1218       H  0.93837957  0.61004036  0.46764374     0.18100
H1219       H  0.93740146  0.60679986  0.61978055     0.18100
N1220       N  0.91298620  0.63329823  0.58813624    -0.88700
H1221       H  0.96171275  0.58666822  0.46756448     0.35400
H1222       H  0.95138289  0.56245706  0.50487332     0.40500
H1223       H  0.92630111  0.65518430  0.58558460     0.40200
H1224       H  0.91227994  0.62864648  0.61939063     0.35000
C1225       C  0.80988356  0.65686065  0.57939539    -0.26700
C1226       C  0.82323259  0.67568556  0.61205297    -0.14800
C1227       C  0.85315495  0.69393448  0.61228286     0.35900
C1228       C  0.86888168  0.69341498  0.57939526    -0.26100
C1229       C  0.85557528  0.67459836  0.54682050    -0.15400
C1230       C  0.82569056  0.65611771  0.54670376     0.37000
N1231       N  0.81145282  0.63694017  0.51326030    -0.89600
H1232       H  0.78696186  0.64294885  0.57902948     0.18100
H1233       H  0.89180907  0.70729457  0.57978491     0.18100
N1234       N  0.86759705  0.71257743  0.64619229    -0.88700
H1235       H  0.81430240  0.64894801  0.48707187     0.35400
H1236       H  0.78948004  0.62451761  0.51832834     0.40500
H1237       H  0.88951754  0.72488052  0.64114205     0.40200
H1238       H  0.86467895  0.70008482  0.67191568     0.35000
C1239       C  0.81752135  0.65001277  0.81191787    -0.26700
C1240       C  0.82342275  0.67659820  0.79876171    -0.14800
C1241       C  0.84503140  0.70101469  0.81881233     0.35900
C1242       C  0.86001960  0.69827704  0.85145618    -0.26100
C1243       C  0.85444516  0.67179142  0.86423483    -0.15400
C1244       C  0.83265929  0.64730468  0.84455506     0.37000
N1245       N  0.82581704  0.61984194  0.85775364    -0.89600
H1246       H  0.80079996  0.63115301  0.79691566     0.18100
H1247       H  0.87668103  0.71717861  0.86645040     0.18100
N1248       N  0.85206422  0.72856102  0.80575276    -0.88700
H1249       H  0.80967179  0.60413762  0.83943748     0.35400
H1250       H  0.81762061  0.61655458  0.88738800     0.40500
H1251       H  0.86087710  0.73209516  0.77650696     0.40200
H1252       H  0.86781583  0.74416597  0.82463948     0.35000
C1253       C  0.00730413  0.73280882  0.83154565    -0.26700
C1254       C  0.03251251  0.74780775  0.85441522    -0.14800
C1255       C  0.03138934  0.75112585  0.89698959     0.35900
C1256       C  0.00489138  0.73832926  0.91629101    -0.26100
C1257       C  0.97970572  0.72139917  0.89408567    -0.15400
C1258       C  0.98077488  0.71924405  0.85107253     0.37000
N1259       N  0.95500528  0.70290201  0.82762126    -0.89600
H1260       H  0.00838141  0.73050255  0.79878009     0.18100
H1261       H  0.00398017  0.74016288  0.94919819     0.18100
N1262       N  0.05715986  0.76744067  0.92045770    -0.88700
H1263       H  0.95954144  0.70341065  0.79645940     0.35400
H1264       H  0.94338197  0.71251668  0.83029094     0.40500
H1265       H  0.06742392  0.75635647  0.92136157     0.40200
H1266       H  0.05255358  0.76914038  0.95086262     0.35000
C1267       C  0.64964089  0.68881472  0.97706209    -0.26700
C1268       C  0.63283753  0.69917310  0.98944411    -0.14800
C1269       C  0.60411534  0.68505991  0.97650698     0.35900
C1270       C  0.59302389  0.66099781  0.95129328    -0.26100
C1271       C  0.60990350  0.65053001  0.93960010    -0.15400
C1272       C  0.63859507  0.66479524  0.95241227     0.37000
N1273       N  0.65664538  0.65514417  0.93969516    -0.89600
H1274       H  0.67174449  0.69969775  0.98651371     0.18100
H1275       H  0.57100106  0.65003684  0.94146702     0.18100
N1276       N  0.58697700  0.69677500  0.48476639    -0.88700
H1277       H  0.67705608  0.66774070  0.95213404     0.35400
H1278       H  0.65876436  0.65760360  0.90785905     0.40500
H1279       H  0.58330106  0.69401220  0.51631195     0.40200
H1280       H  0.56706526  0.68500740  0.47052581     0.35000
C1281       C  0.64702318  0.60255500  0.76582686    -0.26700
C1282       C  0.64889038  0.60083138  0.80861507    -0.14800
C1283       C  0.67550090  0.61045431  0.82711322     0.35900
C1284       C  0.69989791  0.62302461  0.80253349    -0.26100
C1285       C  0.69823991  0.62614223  0.75996429    -0.15400
C1286       C  0.67127251  0.61493038  0.74114182     0.37000
N1287       N  0.66760650  0.61736545  0.69790404    -0.89600
H1288       H  0.62653692  0.59506186  0.75150117     0.18100
H1289       H  0.72056105  0.63160579  0.81690455     0.18100
N1290       N  0.67789055  0.60888119  0.87086190    -0.88700
H1291       H  0.65595098  0.59696470  0.68593108     0.35400
H1292       H  0.68684969  0.62798790  0.68237626     0.40500
H1293       H  0.67218202  0.62204269  0.88410180     0.40200
H1294       H  0.69899769  0.61685646  0.87948980     0.35000
C1295       C  0.51401869  0.49278743  0.52511122    -0.26700
C1296       C  0.48780941  0.49053648  0.53023277    -0.14800
C1297       C  0.47915901  0.50432924  0.00240082     0.35900
C1298       C  0.49821443  0.52135762  0.97153752    -0.26100
C1299       C  0.52487310  0.52443907  0.96747245    -0.15400
C1300       C  0.53299514  0.50971399  0.49413968     0.37000
N1301       N  0.55983895  0.51194514  0.49039962    -0.89600
H1302       H  0.52001420  0.48155830  0.54578152     0.18100
H1303       H  0.49203249  0.53213809  0.95027262     0.18100
N1304       N  0.45195628  0.50139955  0.00536432    -0.88700
H1305       H  0.56152981  0.49885034  0.51174837     0.35400
H1306       H  0.57531699  0.53392130  0.99973258     0.40500
H1307       H  0.43750940  0.48263791  0.49960451     0.40200
H1308       H  0.44999664  0.51403402  0.98344724     0.35000
C1309       C  0.50110683  0.48118178  0.74519555    -0.26700
C1310       C  0.49072897  0.49209045  0.71607614    -0.14800
C1311       C  0.49833400  0.52048594  0.71960833     0.35900
C1312       C  0.51565060  0.53693891  0.75209538    -0.26100
C1313       C  0.52538759  0.52581471  0.78187571    -0.15400
C1314       C  0.51795647  0.49749936  0.77839016     0.37000
N1315       N  0.52702169  0.48514131  0.80881171    -0.89600
H1316       H  0.49535305  0.45949213  0.74278609     0.18100
H1317       H  0.52144776  0.55866420  0.75406801     0.18100
N1318       N  0.48920388  0.53347542  0.69063368    -0.88700
H1319       H  0.52044776  0.46448449  0.80090864     0.35400
H1320       H  0.51667306  0.48373678  0.83611048     0.40500
H1321       H  0.46710598  0.52326508  0.69177199     0.40200
H1322       H  0.49538480  0.53163962  0.66126650     0.35000
C1323       C  0.41323938  0.05515500  0.76527851    -0.26700
C1324       C  0.42129524  0.06158457  0.80667294    -0.14800
C1325       C  0.42034214  0.08371106  0.82525067     0.35900
C1326       C  0.40979006  0.09776297  0.80261261    -0.26100
C1327       C  0.40066375  0.09036540  0.76188850    -0.15400
C1328       C  0.40303514  0.06940166  0.74265216     0.37000
N1329       N  0.39324759  0.06137000  0.70111205    -0.89600
H1330       H  0.41416486  0.03836048  0.75079970     0.18100
H1331       H  0.40753276  0.11371724  0.81725328     0.18100
N1332       N  0.42874313  0.09094332  0.86738091    -0.88700
H1333       H  0.39560216  0.04493961  0.69186959     0.35400
H1334       H  0.40638679  0.07861312  0.68222806     0.40500
H1335       H  0.41428569  0.07377018  0.88540933     0.40200
H1336       H  0.42711605  0.10792721  0.87602119     0.35000
C1337       C  0.32331997  0.03086417  0.62167555    -0.26700
C1338       C  0.30652726  0.03856462  0.64262210    -0.14800
C1339       C  0.27656363  0.02045607  0.64078013     0.35900
C1340       C  0.26429234  0.99505182  0.61912861    -0.26100
C1341       C  0.28128161  0.98698521  0.60002278    -0.15400
C1342       C  0.31105074  0.00528645  0.60054647     0.37000
N1343       N  0.32869312  0.99774971  0.57966317    -0.89600
H1344       H  0.34625772  0.04462681  0.62235426     0.18100
H1345       H  0.24137952  0.98101170  0.61862542     0.18100
N1346       N  0.25804370  0.02717812  0.66038597    -0.88700
H1347       H  0.35017119  0.01355021  0.58294535     0.35400
H1348       H  0.32395034  0.99650156  0.54835524     0.40500
H1349       H  0.26251731  0.04661943  0.64949360     0.40200
H1350       H  0.26188338  0.02847069  0.69212646     0.35000
C1351       C  0.37207250  0.19808336  0.55641831    -0.26700
C1352       C  0.34641759  0.19641141  0.54776917    -0.14800
C1353       C  0.32227900  0.17840867  0.57168354     0.35900
C1354       C  0.32424499  0.16212788  0.60297439    -0.26100
C1355       C  0.34983193  0.16357816  0.61136297    -0.15400
C1356       C  0.37400971  0.18171881  0.58758601     0.37000
N1357       N  0.40035430  0.18328059  0.59465597    -0.89600
H1358       H  0.39070095  0.21187786  0.53825027     0.18100
H1359       H  0.30562140  0.14834116  0.62115363     0.18100
N1360       N  0.29585320  0.17662989  0.56428829    -0.88700
H1361       H  0.41626382  0.19837510  0.57543226     0.35400
H1362       H  0.39723685  0.16388632  0.58633357     0.40500
H1363       H  0.29877351  0.19597244  0.57254988     0.40200
H1364       H  0.27991361  0.16144380  0.58332064     0.35000
C1365       C  0.37201373  0.18569849  0.80865572    -0.26700
C1366       C  0.34681648  0.16006367  0.79903107    -0.14800
C1367       C  0.32199872  0.15175024  0.82150632     0.35900
C1368       C  0.32290529  0.16949792  0.85238472    -0.26100
C1369       C  0.34797543  0.19541345  0.86141429    -0.15400
C1370       C  0.37298446  0.20331150  0.83976404     0.37000
N1371       N  0.39927901  0.22909232  0.84922096    -0.89600
H1372       H  0.39126187  0.19205324  0.79196281     0.18100
H1373       H  0.30368923  0.16309989  0.86919545     0.18100
N1374       N  0.29593592  0.12552458  0.81292773    -0.88700
H1375       H  0.41531979  0.23222563  0.82932268     0.35400
H1376       H  0.40561139  0.22681123  0.87854592     0.40500
H1377       H  0.28894746  0.12729717  0.78385029     0.40200
H1378       H  0.28007063  0.12212455  0.83342176     0.35000
C1379       C  0.41343300  0.33444816  0.52219877    -0.26700
C1380       C  0.38395779  0.31774529  0.51593252    -0.14800
C1381       C  0.36637274  0.32662849  0.53145669     0.35900
C1382       C  0.37860793  0.35162967  0.55388957    -0.26100
C1383       C  0.40791223  0.36788553  0.56118109    -0.15400
C1384       C  0.42555915  0.35936823  0.54489777     0.37000
N1385       N  0.45580586  0.37602718  0.54980030    -0.89600
H1386       H  0.42703427  0.32790951  0.50993107     0.18100
H1387       H  0.36517359  0.35845749  0.56592456     0.18100
N1388       N  0.33621142  0.31047123  0.52388241    -0.88700
H1389       H  0.46070014  0.37751438  0.58119587     0.35400
H1390       H  0.46320419  0.39617800  0.53837245     0.40500
H1391       H  0.33301426  0.31101599  0.49234954     0.40200
H1392       H  0.32639079  0.31975650  0.53796789     0.35000
C1393       C  0.08772351  0.40077692  0.94515959    -0.26700
C1394       C  0.08607314  0.39879530  0.98813992    -0.14800
C1395       C  0.07346771  0.41111981  0.00932116     0.35900
C1396       C  0.06189965  0.42433860  0.98697878    -0.26100
C1397       C  0.06294021  0.42574029  0.94394799    -0.15400
C1398       C  0.07673964  0.41457350  0.92285567     0.37000
N1399       N  0.07799385  0.41571398  0.87883197    -0.89600
H1400       H  0.09728167  0.39114845  0.92891626     0.18100
H1401       H  0.05117169  0.43280189  0.00313455     0.18100
N1402       N  0.06969507  0.40735357  0.55331369    -0.88700
H1403       H  0.08731456  0.40504550  0.86798232     0.35400
H1404       H  0.09150418  0.43684404  0.87036745     0.40500
H1405       H  0.05664737  0.38570685  0.55907791     0.40200
H1406       H  0.05882150  0.41650675  0.56404235     0.35000
C1407       C  0.03172964  0.28852561  0.64521297    -0.26700
C1408       C  0.03224118  0.29702700  0.60448317    -0.14800
C1409       C  0.00693247  0.29121214  0.58529599     0.35900
C1410       C  0.98159183  0.27773257  0.60776129    -0.26100
C1411       C  0.98112625  0.27016389  0.64912669    -0.15400
C1412       C  0.00630826  0.27472335  0.66766003     0.37000
N1413       N  0.00638493  0.26674130  0.70965834    -0.89600
H1414       H  0.05138338  0.29320487  0.65975074     0.18100
H1415       H  0.96229047  0.27408583  0.59330873     0.18100
N1416       N  0.00735670  0.30032094  0.54379666    -0.88700
H1417       H  0.02692760  0.27294357  0.71909879     0.35400
H1418       H  0.99435327  0.24471714  0.71107163     0.40500
H1419       H  0.01964821  0.32236969  0.54339638     0.40200
H1420       H  0.98694143  0.29447997  0.53422120     0.35000
C1421       C  0.33051942  0.41160128  0.73358650    -0.26700
C1422       C  0.31388287  0.38210533  0.73724152    -0.14800
C1423       C  0.32333368  0.36571870  0.71919817     0.35900
C1424       C  0.34853598  0.37912216  0.69664466    -0.26100
C1425       C  0.36454260  0.40844774  0.69158401    -0.15400
C1426       C  0.35576807  0.42498594  0.71065875     0.37000
N1427       N  0.37300357  0.45521589  0.70805802    -0.89600
H1428       H  0.32357560  0.42419153  0.74807219     0.18100
H1429       H  0.35569061  0.36655054  0.68262513     0.18100
N1430       N  0.30753798  0.33555436  0.72414541    -0.88700
H1431       H  0.36434784  0.46422357  0.72575999     0.35400
H1432       H  0.37230385  0.46092466  0.67768716     0.40500
H1433       H  0.30821264  0.33119803  0.75524527     0.40200
H1434       H  0.31719369  0.32673971  0.70840420     0.35000
C1435       C  0.25667317  0.27014573  0.86688022    -0.26700
C1436       C  0.27254279  0.29928017  0.85900744    -0.14800
C1437       C  0.30176541  0.31518433  0.86936665     0.35900
C1438       C  0.31432590  0.30164295  0.88744127    -0.26100
C1439       C  0.29846876  0.27263294  0.89588621    -0.15400
C1440       C  0.26920138  0.25677980  0.88586431     0.37000
N1441       N  0.25182877  0.22713620  0.89392562    -0.89600
H1442       H  0.23428614  0.25779329  0.85896572     0.18100
H1443       H  0.33673809  0.31394822  0.89528474     0.18100
N1444       N  0.31875127  0.34497482  0.86096622    -0.88700
H1445       H  0.25151025  0.22388238  0.92552105     0.35400
H1446       H  0.26092604  0.21719366  0.87966420     0.40500
H1447       H  0.31968741  0.34766859  0.82920623     0.40200
H1448       H  0.33970322  0.35355867  0.87118753     0.35000
C1449       C  0.15651300  0.32197998  0.65126944    -0.26700
C1450       C  0.15884735  0.34780113  0.64286222    -0.14800
C1451       C  0.17672937  0.37126304  0.66790954     0.35900
C1452       C  0.19155370  0.36824510  0.70069811    -0.26100
C1453       C  0.18934464  0.34245953  0.70888910    -0.15400
C1454       C  0.17128434  0.31895111  0.68407709     0.37000
N1455       N  0.16788577  0.29206444  0.69209114    -0.89600
H1456       H  0.14276287  0.30380366  0.63238578     0.18100
H1457       H  0.20530339  0.38639891  0.71962590     0.18100
N1458       N  0.17990617  0.39807135  0.66013784    -0.88700
H1459       H  0.15476256  0.27733990  0.66999658     0.35400
H1460       H  0.15728738  0.28464241  0.72004837     0.40500
H1461       H  0.19074099  0.40577175  0.63243693     0.40200
H1462       H  0.19274131  0.41268902  0.68258005     0.35000
C1463       C  0.15133270  0.31948367  0.94149621    -0.26700
C1464       C  0.15821038  0.34549418  0.95764802    -0.14800
C1465       C  0.18219960  0.37046229  0.94237832     0.35900
C1466       C  0.19871290  0.36894235  0.91160271    -0.26100
C1467       C  0.19182405  0.34294065  0.89540991    -0.15400
C1468       C  0.16785557  0.31795913  0.91072534     0.37000
N1469       N  0.16024583  0.29090816  0.89550786    -0.89600
H1470       H  0.13309418  0.30010321  0.95294623     0.18100
H1471       H  0.21687945  0.38834026  0.90005411     0.18100
N1472       N  0.18972645  0.39751680  0.95746086    -0.88700
H1473       H  0.13951863  0.28090288  0.88385126     0.35400
H1474       H  0.16035395  0.27890892  0.92015419     0.40500
H1475       H  0.18954974  0.40944260  0.93273411     0.40200
H1476       H  0.21045124  0.40759924  0.96907698     0.35000
loop_ 
_geom_bond_atom_site_label_1 
_geom_bond_atom_site_label_2 
_geom_bond_distance 
_geom_bond_site_symmetry_2 
_ccdc_geom_bond_type 
In1           O3   2.197       .  S
In1           O4   2.251       .  S
In1          O12   2.210       .  S
In1           O6   2.230       .  S
In1           O8   2.244       .  S
In1           O9   2.236       .  S
In1          O10   2.197       .  S
In1          O13   2.211       .  S
C2            O8   1.272       .  A
C2           O10   1.264       .  A
C2          C684   1.478       .  S
O3           C11   1.264       .  A
O4           C11   1.272       .  A
C5           O12   1.265       .  A
C5            O6   1.271       .  A
C5          C729   1.482       .  S
C7            O9   1.271       .  A
C7           O13   1.265       .  A
C7          C715   1.487       .  S
C11         C698   1.479       .  S
In14         O16   2.216       .  S
In14         O17   2.254       .  S
In14         O25   2.217       .  S
In14         O21   2.253       .  S
In14         O22   2.264       .  S
In14         O23   2.223       .  S
In14        O757   2.241   1_554  S
In14        O764   2.231   1_554  S
C15          O21   1.267       .  A
C15          O23   1.261       .  A
C15         C670   1.471       .  S
O16          C24   1.263       .  A
O17          C24   1.270       .  A
C18          O19   1.269       .  A
C18         O763   1.263       .  A
C18         C726   1.482       .  S
O19        In752   2.241       .  S
C20          O22   1.269       .  A
C20         O764   1.261   1_554  A
C20        C1394   1.482   1_554  S
C24         C712   1.489       .  S
O25         C756   1.263   1_554  A
O26        In752   2.231       .  S
O26         C758   1.260       .  A
In27         O29   2.206       .  S
In27         O30   2.245       .  S
In27         O38   2.203       .  S
In27         O32   2.235       .  S
In27         O34   2.243       .  S
In27        O773   2.223       .  S
In27        O774   2.179       .  S
In27        O777   2.214       .  S
C28          O36   1.263   1_556  A
C28         O772   1.272       .  A
C28         C642   1.472   1_556  S
O29          C37   1.265       .  A
O30          C37   1.269       .  A
C31          O38   1.264       .  A
C31          O32   1.270       .  A
C31         C631   1.483       .  S
C33          O35   1.270       .  A
C33          O39   1.265   1_554  A
C33         C614   1.482       .  S
O34         C766   1.272       .  A
O35        In765   2.223   1_554  S
O36        In765   2.182   1_554  S
C37         C701   1.479       .  S
O39        In765   2.213       .  S
In40         O42   2.221       .  S
In40         O43   2.231       .  S
In40         O51   2.209       .  S
In40         O45   2.237       .  S
In40         O47   2.251       .  S
In40         O48   2.248       .  S
In40         O49   2.200       .  S
In40         O52   2.215       .  S
C41          O47   1.270       .  A
C41          O49   1.262       .  A
C41         C600   1.482       .  S
O42          C50   1.264       .  A
O43          C50   1.269       .  A
C44          O51   1.264       .  A
C44          O45   1.270       .  A
C44         C628   1.484       .  S
C46          O48   1.268       .  A
C46          O52   1.263       .  A
C46         C589   1.470       .  S
C50         C617   1.484       .  S
In53         O55   2.211       .  S
In53         O56   2.236       .  S
In53         O64   2.203       .  S
In53         O58   2.243       .  S
In53         O60   2.266       .  S
In53         O61   2.247       .  S
In53         O62   2.208       .  S
In53         O65   2.207       .  S
C54          O60   1.271       .  A
C54          O62   1.263       .  A
C54         C533   1.485       .  S
O55          C63   1.264       .  A
O56          C63   1.270       .  A
C57          O64   1.263       .  A
C57          O58   1.272       .  A
C57         C575   1.482       .  S
C59          O61   1.270       .  A
C59          O65   1.264       .  A
C59         C544   1.477       .  S
C63         C561   1.484       .  S
In66         O68   2.203       .  S
In66         O69   2.245       .  S
In66         O77   2.198       .  S
In66         O71   2.232       .  S
In66         O73   2.227       .  S
In66         O74   2.238       .  S
In66         O75   2.201       .  S
In66         O78   2.201       .  S
C67          O73   1.270       .  A
C67          O75   1.266       .  A
C67         C645   1.468       .  S
O68          C76   1.264       .  A
O69          C76   1.271       .  A
C70          O77   1.262       .  A
C70          O71   1.271       .  A
C70         C572   1.479       .  S
C72          O74   1.272       .  A
C72          O78   1.264       .  A
C72         C558   1.483       .  S
C76         C687   1.473       .  S
In79         O82   2.249       .  S
In79         O86   2.249       .  S
In79         O87   2.240       .  S
In79         O88   2.218       .  S
In79         O91   2.201       .  S
In79        O819   2.219       .  S
In79        O828   2.213       .  S
In79        O822   2.232       .  S
C80          O86   1.268       .  A
C80          O88   1.262       .  A
C80         C519   1.475       .  S
O81        In817   2.220   1_554  S
O81         C827   1.261   1_554  A
O82          C89   1.268       .  A
C83          O90   1.264   1_554  A
C83          O84   1.270       .  A
C83         C491   1.477       .  S
O84        In817   2.232   1_554  S
C85          O87   1.271       .  A
C85          O91   1.264       .  A
C85         C505   1.482       .  S
C89         O819   1.261       .  A
C89        C1212   1.476       .  S
O90        In817   2.211       .  S
In92         O94   2.226       .  S
In92         O95   2.239       .  S
In92        O103   2.211       .  S
In92         O97   2.240       .  S
In92         O99   2.262       .  S
In92        O100   2.268       .  S
In92        O101   2.213       .  S
In92        O104   2.232       .  S
C93          O99   1.267       .  A
C93         O101   1.259       .  A
C93         C547   1.472       .  S
O94         C102   1.262       .  A
O95         C102   1.268       .  A
C96         O103   1.262       .  A
C96          O97   1.269       .  A
C96         C488   1.480       .  S
C98         O100   1.266       .  A
C98         O104   1.260       .  A
C98         C463   1.484       .  S
C102        C502   1.484       .  S
In105       O107   2.215       .  S
In105       O108   2.259       .  S
In105       O116   2.220       .  S
In105       O110   2.244       .  S
In105       O112   2.266       .  S
In105       O113   2.246       .  S
In105       O114   2.207       .  S
In105       O117   2.222       .  S
C106        O112   1.269       .  A
C106        O114   1.262       .  A
C106        C446   1.482       .  S
O107        C115   1.263       .  A
O108        C115   1.269       .  A
C109        O116   1.263       .  A
C109        O110   1.271       .  A
C109        C418   1.486       .  S
C111        O113   1.269       .  A
C111        O117   1.264       .  A
C111        C432   1.485       .  S
C115        C407   1.480       .  S
In118       O120   2.225       .  S
In118       O129   2.200       .  S
In118       O123   2.268       .  S
In118       O125   2.275       .  S
In118       O126   2.258       .  S
In118       O130   2.231       .  S
In118       O859   2.248       .  S
In118       O865   2.215       .  S
C119        O125   1.269       .  A
C119        O865   1.261       .  A
C119       C1268   1.487   1_554  S
O120        C866   1.262   1_554  A
O121       In856   2.248       .  S
O121        C128   1.267       .  A
C122        O129   1.261       .  A
C122        O123   1.272       .  A
C122        C421   1.489       .  S
C124        O126   1.268       .  A
C124        O130   1.264       .  A
C124        C460   1.482       .  S
O127       In856   2.214       .  S
O127        C857   1.261       .  A
C128        O858   1.262       .  A
C128        C435   1.487       .  S
In131       O133   2.215   1_455  S
In131       O134   2.243       .  S
In131       O142   2.214       .  S
In131       O136   2.241   1_455  S
In131       O138   2.256   1_455  S
In131       O139   2.249       .  S
In131       O140   2.204       .  S
In131       O143   2.221       .  S
C132        O138   1.270       .  A
C132        O140   1.262   1_655  A
C132        C365   1.473       .  S
O133        C141   1.262   1_655  A
O134        C141   1.269       .  A
C135        O142   1.263       .  A
C135        O136   1.271   1_455  A
C135        C376   1.481       .  S
C137        O139   1.270       .  A
C137        O143   1.265       .  A
C137        C659   1.482       .  S
C141        C393   1.485       .  S
In144       O146   2.219   1_455  S
In144       O147   2.266   1_455  S
In144       O155   2.207   1_455  S
In144       O149   2.240       .  S
In144       O151   2.249       .  S
In144       O152   2.260   1_455  S
In144       O153   2.213       .  S
In144       O156   2.211       .  S
C145        O151   1.266       .  A
C145        O153   1.261       .  A
C145        C348   1.466       .  S
O146        C154   1.262       .  A
O147        C154   1.270       .  A
C148        O155   1.263   1_455  A
C148        O149   1.269       .  A
C148        C379   1.477       .  S
C150        O152   1.269   1_455  A
C150        O156   1.260       .  A
C150        C390   1.486       .  S
C154        C477   1.482       .  S
In157       O159   2.207       .  S
In157       O160   2.242       .  S
In157       O168   2.212       .  S
In157       O162   2.240       .  S
In157       O164   2.240       .  S
In157       O165   2.269       .  S
In157       O166   2.212       .  S
In157       O169   2.208       .  S
C158        O164   1.270       .  A
C158        O166   1.265       .  A
C158        C673   1.482       .  S
O159        C167   1.265       .  A
O160        C167   1.272       .  A
C161        O168   1.262       .  A
C161        O162   1.270       .  A
C161        C337   1.484       .  S
C163        O165   1.270       .  A
C163        O169   1.262       .  A
C163        C362   1.490       .  S
C167        C323   1.488       .  S
In170       O173   2.243       .  S
In170       O177   2.259       .  S
In170       O178   2.234       .  S
In170       O179   2.195       .  S
In170       O182   2.209       .  S
In170       O910   2.201       .  S
In170       O919   2.202       .  S
In170       O913   2.244       .  S
C171        O177   1.273       .  A
C171        O179   1.264       .  A
C171        C449   1.479       .  S
O172       In908   2.203   1_554  S
O172        C180   1.266       .  A
O173        C918   1.271       .  A
C174        O181   1.264       .  A
C174        O175   1.272       .  A
C174        C320   1.487       .  S
O175       In908   2.247   1_554  S
C176        O178   1.271       .  A
C176        O182   1.263       .  A
C176        C334   1.485       .  S
C180        O911   1.271   1_554  A
C180        C306   1.477       .  S
O181       In908   2.207   1_554  S
In183       O185   2.211   1_545  S
In183       O186   2.247       .  S
In183       O194   2.207       .  S
In183       O188   2.241   1_545  S
In183       O190   2.252   1_545  S
In183       O191   2.263       .  S
In183       O192   2.203       .  S
In183       O195   2.219       .  S
C184        O190   1.267       .  A
C184        O192   1.261   1_565  A
C184        C264   1.471       .  S
O185        C193   1.263   1_565  A
O186        C193   1.270       .  A
C187        O194   1.263       .  A
C187        O188   1.268   1_545  A
C187        C292   1.482       .  S
C189        O191   1.267       .  A
C189        O195   1.261       .  A
C189        C586   1.481       .  S
C193        C278   1.485       .  S
In196       O198   2.214       .  S
In196       O199   2.254       .  S
In196       O207   2.209       .  S
In196       O201   2.230   1_565  S
In196       O203   2.265   1_565  S
In196       O204   2.246       .  S
In196       O205   2.211       .  S
In196       O208   2.223   1_565  S
C197        O203   1.269       .  A
C197        O205   1.262   1_545  A
C197        C309   1.485       .  S
O198        C206   1.262       .  A
O199        C206   1.270       .  A
C200        O207   1.264       .  A
C200        O201   1.269   1_565  A
C200        C295   1.482       .  S
C202        O204   1.269       .  A
C202        O208   1.263   1_565  A
C202        C281   1.486   1_565  S
C206        C404   1.476       .  S
In209       O211   2.191       .  S
In209       O212   2.243       .  S
In209       O220   2.209       .  S
In209       O214   2.219       .  S
In209       O216   2.241       .  S
In209       O217   2.238       .  S
In209       O218   2.203       .  S
In209       O221   2.197       .  S
C210        O216   1.269       .  A
C210        O218   1.264       .  A
C210        C516   1.468       .  S
O211        C219   1.264       .  A
O212        C219   1.271       .  A
C213        O220   1.264       .  A
C213        O214   1.271       .  A
C213        C239   1.476       .  S
C215        O217   1.272       .  A
C215        O221   1.263       .  A
C215        C250   1.480       .  S
C219        C351   1.482       .  S
In222       O224   2.192       .  S
In222       O225   2.252       .  S
In222       O229   2.246       .  S
In222       O230   2.235       .  S
In222       O231   2.203       .  S
In222       O971   2.208       .  S
In222       O965   2.234       .  S
In222       O972   2.204   1_554  S
C223        O229   1.268       .  A
C223        O231   1.262       .  A
C223        C603   1.470       .  S
O224        C232   1.261       .  A
O225        C232   1.270       .  A
C226        O233   1.263       .  A
C226        O227   1.270       .  A
C226        C253   1.479       .  S
O227       In960   2.233       .  S
C228        O230   1.270       .  A
C228        O972   1.262   1_554  A
C228       C1005   1.468   1_554  S
C232        C236   1.478       .  S
O233       In960   2.210       .  S
O234       In960   2.202       .  S
O234        C966   1.262       .  A
C235        C236   1.403       .  A
C235        C240   1.406       .  A
C235        H242   1.084       .  S
C236        C237   1.414       .  A
C237        C238   1.399       .  A
C237        N244   1.438       .  S
C238        C239   1.399       .  A
C238        H243   1.084       .  S
C239        C240   1.416       .  A
C240        N241   1.438       .  S
N241        H245   1.046       .  S
N241        H246   1.046       .  S
N244        H247   1.046       .  S
N244        H248   1.046       .  S
C249        C250   1.402       .  A
C249        C254   1.405       .  A
C249        H256   1.083       .  S
C250        C251   1.416       .  A
C251        C252   1.403       .  A
C251        N258   1.439       .  S
C252        C253   1.401       .  A
C252        H257   1.084       .  S
C253        C254   1.415       .  A
C254        N255   1.438       .  S
N255        H259   1.045       .  S
N255        H998   1.046       .  S
N258        H261   1.046       .  S
N258        H262   1.045       .  S
H260        N993   1.046   1_554  S
C263        C264   1.401       .  A
C263        C268   1.399       .  A
C263        H270   1.084       .  S
C264        C265   1.413       .  A
C265       C1004   1.402       .  A
C265       N1010   1.438       .  S
C266       C1003   1.402   1_554  A
C266       C1005   1.399   1_554  A
C266        H271   1.084       .  S
C267        C966   1.467       .  S
C267        C268   1.414       .  A
C267       C1004   1.399       .  A
C268        N269   1.433       .  S
N269        H273   1.044       .  S
N269        H274   1.046       .  S
N272       C1003   1.438       .  S
N272        H276   1.045   1_556  S
N272       H1013   1.046       .  S
H275       N1010   1.046       .  S
C277        C278   1.406   1_565  A
C277        C282   1.405       .  A
C277        H284   1.083       .  S
C278       C1017   1.412       .  A
C279        C280   1.407   1_556  A
C279       C1016   1.411       .  A
C279        N286   1.438       .  S
C280        C281   1.408       .  A
C280        H285   1.083       .  S
C281       C1020   1.411   1_545  A
C282       C1019   1.411   1_565  A
C282        N283   1.438       .  S
N283        H287   1.046       .  S
N283       H1026   1.045       .  S
N286        H290   1.045       .  S
N286       H1027   1.046       .  S
H288       N1021   1.046       .  S
H289       N1024   1.045       .  S
C291        C292   1.406       .  A
C291        C296   1.402       .  A
C291        H298   1.083       .  S
C292        C293   1.412   1_545  A
C293        C294   1.405       .  A
C293        N300   1.438       .  S
C294        C295   1.408       .  A
C294        H299   1.083       .  S
C295        C296   1.411   1_565  A
C296        N297   1.438       .  S
N297        H301   1.046       .  S
N297        H302   1.045       .  S
N300        H303   1.045       .  S
N300        H304   1.046       .  S
C305        C306   1.400       .  A
C305        C310   1.401       .  A
C305        H312   1.084       .  S
C306        C307   1.410       .  A
C307        C308   1.412       .  A
C307        N314   1.437       .  S
C308        C309   1.408       .  A
C308        H313   1.083       .  S
C309        C310   1.415       .  A
C310        N311   1.439   1_545  S
N311        H315   1.046       .  S
N311        H316   1.045       .  S
N314        H317   1.046       .  S
N314        H318   1.046       .  S
C319        C320   1.408       .  A
C319        C324   1.399       .  A
C319        H326   1.084       .  S
C320        C321   1.411       .  A
C321        C322   1.407       .  A
C321        N328   1.438       .  S
C322        C323   1.409       .  A
C322        H327   1.083       .  S
C323        C324   1.414       .  A
C324        N325   1.432       .  S
N325        H329   1.045       .  S
N325        H330   1.045       .  S
N328        H331   1.046       .  S
N328        H332   1.046       .  S
C333        C334   1.403       .  A
C333        C338   1.398       .  A
C333        H340   1.084       .  S
C334        C335   1.420       .  A
C335        C336   1.398       .  A
C335        N342   1.432       .  S
C336        C337   1.402       .  A
C336        H341   1.084       .  S
C337        C338   1.419       .  A
C338        N339   1.433       .  S
N339        H343   1.047       .  S
N339        H344   1.044       .  S
N342        H345   1.047       .  S
N342        H346   1.043       .  S
C347        C348   1.402       .  A
C347        C352   1.409       .  A
C347        H354   1.084       .  S
C348        C349   1.411       .  A
C349        C350   1.396       .  A
C349        N356   1.440       .  S
C350        C351   1.407       .  A
C350        H355   1.084       .  S
C351        C352   1.414       .  A
C352        N353   1.437       .  S
N353        H357   1.045       .  S
N353        H358   1.046       .  S
N356        H359   1.043       .  S
N356        H360   1.046       .  S
C361        C362   1.408       .  A
C361        C366   1.401       .  A
C361        H368   1.083       .  S
C362        C363   1.416       .  A
C363        C364   1.413       .  A
C363        N370   1.437       .  S
C364        C365   1.403       .  A
C364        H369   1.084       .  S
C365        C366   1.406       .  A
C366        N367   1.439   1_655  S
N367        H371   1.046       .  S
N367        H372   1.046       .  S
N370        H373   1.046       .  S
N370        H374   1.045       .  S
C375        C380   1.396   1_556  A
C375       C1114   1.401   1_655  A
C375        H382   1.084       .  S
C376        C377   1.419       .  A
C376       C1113   1.401   1_455  A
C377        C378   1.399       .  A
C377        N384   1.433       .  S
C378       C1117   1.402       .  A
C378        H383   1.084       .  S
C379        C380   1.417   1_455  A
C379       C1116   1.402       .  A
C380        N381   1.432       .  S
N381        H385   1.043       .  S
N381        H386   1.045       .  S
N384        H387   1.044       .  S
N384        H388   1.046       .  S
C389        C390   1.408       .  A
C389        C394   1.398       .  A
C389        H396   1.084       .  S
C390        C391   1.414   1_455  A
C391        C392   1.401       .  A
C391        N398   1.432       .  S
C392        C393   1.408   1_655  A
C392        H397   1.084       .  S
C393        C394   1.413       .  A
C394        N395   1.432       .  S
N395        H399   1.041       .  S
N395        H400   1.050       .  S
N398        H401   1.046       .  S
N398        H402   1.045       .  S
C403        C404   1.407       .  A
C403        C408   1.409       .  A
C403        H410   1.084       .  S
C404        C405   1.416       .  A
C405        C406   1.401       .  A
C405        N412   1.439       .  S
C406        C407   1.404       .  A
C406        H411   1.084       .  S
C407        C408   1.409       .  A
C408        N409   1.438       .  S
N409        H413   1.047       .  S
N409        H414   1.044       .  S
N412        H415   1.041       .  S
N412        H416   1.046       .  S
C417        C418   1.400       .  A
C417        C422   1.404       .  A
C417        H424   1.084       .  S
C418        C419   1.418       .  A
C419        C420   1.410       .  A
C419        N426   1.438       .  S
C420        C421   1.404       .  A
C420        H425   1.083       .  S
C421        C422   1.418       .  A
C422        N423   1.438       .  S
N423        H427   1.045       .  S
N423        H428   1.046       .  S
N426        H429   1.045       .  S
N426        H430   1.046       .  S
C431        C432   1.406       .  A
C431        C436   1.400       .  A
C431        H438   1.084       .  S
C432        C433   1.414       .  A
C433        C434   1.400       .  A
C433        N440   1.432       .  S
C434        C435   1.407       .  A
C434        H439   1.084       .  S
C435        C436   1.416       .  A
C436        N437   1.432       .  S
N437        H441   1.041       .  S
N437        H442   1.050       .  S
N440        H443   1.045       .  S
N440        H444   1.046       .  S
C445        C446   1.406       .  A
C445        C450   1.407   1_565  A
C445        H452   1.084       .  S
C446        C447   1.412       .  A
C447        C448   1.400   1_565  A
C447        N454   1.439       .  S
C448        C449   1.402       .  A
C448        H453   1.084       .  S
C449        C450   1.414       .  A
C450        N451   1.432       .  S
N451        H455   1.042       .  S
N451        H456   1.049       .  S
N454        H457   1.053       .  S
N454        H458   1.038       .  S
C459        C460   1.405       .  A
C459        C464   1.409       .  A
C459        H466   1.084       .  S
C460        C461   1.411       .  A
C461        C462   1.408       .  A
C461        N468   1.438       .  S
C462        C463   1.406       .  A
C462        H467   1.084       .  S
C463        C464   1.411       .  A
C464        N465   1.437       .  S
N465        H469   1.045       .  S
N465        H470   1.046       .  S
N468        H471   1.046       .  S
N468        H472   1.045       .  S
C473        C474   1.399       .  A
C473        C478   1.404       .  A
C473        H480   1.084   1_554  S
C474        C827   1.477   1_554  S
C474        C475   1.415       .  A
C475        C476   1.410       .  A
C475        N482   1.439       .  S
C476        C477   1.403       .  A
C476        H481   1.084       .  S
C477        C478   1.414       .  A
C478        N479   1.437   1_554  S
N479        H483   1.047       .  S
N479        H484   1.042   1_556  S
N482        H485   1.045       .  S
N482        H486   1.046       .  S
C487        C488   1.403       .  A
C487        C492   1.404       .  A
C487        H494   1.084       .  S
C488        C489   1.415       .  A
C489        C490   1.403       .  A
C489        N496   1.438       .  S
C490        C491   1.401       .  A
C490        H495   1.084       .  S
C491        C492   1.414       .  A
C492        N493   1.438       .  S
N493        H497   1.041   1_554  S
N493        H498   1.051       .  S
N496        H499   1.049       .  S
N496        H500   1.043       .  S
C501        C502   1.408       .  A
C501        C506   1.407       .  A
C501        H508   1.083       .  S
C502        C503   1.411       .  A
C503        C504   1.403       .  A
C503        N510   1.438       .  S
C504        C505   1.406       .  A
C504        H509   1.083       .  S
C505        C506   1.411       .  A
C506        N507   1.438       .  S
N507        H511   1.046       .  S
N507        H512   1.045       .  S
N510        H513   1.045       .  S
N510        H514   1.046       .  S
C515        C516   1.400       .  A
C515        C520   1.406   1_455  A
C515        H522   1.084       .  S
C516        C517   1.410       .  A
C517        C518   1.404       .  A
C517        N524   1.438       .  S
C518        C519   1.401   1_455  A
C518        H523   1.084       .  S
C519        C520   1.414       .  A
C520        N521   1.438       .  S
N521        H525   1.046       .  S
N521        H526   1.045       .  S
N524        H527   1.046       .  S
N524        H528   1.045       .  S
C529        C530   1.403       .  A
C529        C534   1.402       .  A
C529        H536   1.084       .  S
C530        C857   1.486       .  S
C530        C531   1.415       .  A
C531        C532   1.415       .  A
C531       N1276   1.437       .  S
C532        C533   1.406       .  A
C532        H537   1.083       .  S
C533        C534   1.412       .  A
C534        N535   1.439       .  S
N535        H539   1.046       .  S
N535        H540   1.046       .  S
N538       C1269   1.437       .  S
N538        H541   1.045   1_556  S
N538        H542   1.046       .  S
C543        C544   1.405       .  A
C543        C548   1.401       .  A
C543        H550   1.084       .  S
C544        C545   1.409       .  A
C545        C546   1.406       .  A
C545        N552   1.438       .  S
C546        C547   1.405       .  A
C546        H551   1.084       .  S
C547        C548   1.415       .  A
C548        N549   1.439       .  S
N549        H553   1.046       .  S
N549        H554   1.041       .  S
N552        H555   1.046       .  S
N552        H556   1.046       .  S
C557        C558   1.407       .  A
C557        C562   1.404   1_554  A
C557        H564   1.083       .  S
C558       C1297   1.411       .  A
C559        C560   1.405       .  A
C559       C1296   1.411       .  A
C559        N566   1.438       .  S
C560        C561   1.407       .  A
C560        H565   1.083       .  S
C561       C1300   1.412       .  A
C562       C1299   1.411       .  A
C562        N563   1.438       .  S
N563        H567   1.048   1_556  S
N563       H1306   1.043       .  S
N566        H570   1.046       .  S
N566       H1307   1.045       .  S
H568       N1301   1.045       .  S
H569       N1304   1.044   1_556  S
C571        C572   1.401       .  A
C571        C576   1.404       .  A
C571        H578   1.084       .  S
C572        C573   1.418       .  A
C573        C574   1.397       .  A
C573        N580   1.433       .  S
C574        C575   1.402       .  A
C574        H579   1.084       .  S
C575        C576   1.417       .  A
C576        N577   1.438       .  S
N577        H581   1.046       .  S
N577        H582   1.045       .  S
N580        H583   1.044       .  S
N580        H584   1.046       .  S
C585        C586   1.406       .  A
C585        C590   1.404       .  A
C585        H592   1.084       .  S
C586        C587   1.412       .  A
C587        C588   1.408       .  A
C587        N594   1.437       .  S
C588        C589   1.402       .  A
C588        H593   1.084       .  S
C589        C590   1.407       .  A
C590        N591   1.438       .  S
N591        H595   1.045       .  S
N591        H596   1.045       .  S
N594        H597   1.046       .  S
N594        H598   1.045       .  S
C599        C600   1.406       .  A
C599        C604   1.400       .  A
C599        H606   1.084       .  S
C600        C601   1.417       .  A
C601        C602   1.402   1_545  A
C601        N608   1.432       .  S
C602        C603   1.402       .  A
C602        H607   1.084       .  S
C603        C604   1.408   1_565  A
C604        N605   1.439   1_545  S
N605        H609   1.049   1_565  S
N605        H610   1.043       .  S
N608        H611   1.046       .  S
N608        H612   1.045       .  S
C613        C614   1.406       .  A
C613        C618   1.404       .  A
C613        H620   1.083       .  S
C614        C615   1.412       .  A
C615        C616   1.405       .  A
C615        N622   1.438       .  S
C616        C617   1.407       .  A
C616        H621   1.083       .  S
C617        C618   1.412       .  A
C618        N619   1.438       .  S
N619        H623   1.045       .  S
N619        H624   1.046       .  S
N622        H625   1.046       .  S
N622        H626   1.045       .  S
C627        C628   1.407       .  A
C627        C632   1.404       .  A
C627        H634   1.083       .  S
C628        C629   1.412       .  A
C629        C630   1.404       .  A
C629        N636   1.438       .  S
C630        C631   1.407       .  A
C630        H635   1.083       .  S
C631        C632   1.411       .  A
C632        N633   1.438       .  S
N633        H637   1.046       .  S
N633        H638   1.046       .  S
N636        H639   1.046       .  S
N636        H640   1.045       .  S
C641        C642   1.403       .  A
C641        C646   1.400       .  A
C641        H648   1.084       .  S
C642        C643   1.414       .  A
C643        C644   1.399       .  A
C643        N650   1.439       .  S
C644        C645   1.399       .  A
C644        H649   1.084       .  S
C645        C646   1.412       .  A
C646        N647   1.432       .  S
N647        H651   1.049       .  S
N647        H652   1.042       .  S
N650        H653   1.045   1_554  S
N650        H654   1.046       .  S
C655        C656   1.405       .  A
C655        C660   1.410       .  A
C655        H662   1.084       .  S
C656        C758   1.481       .  S
C656        C657   1.409       .  A
C657        C658   1.408       .  A
C657       N1402   1.438       .  S
C658        C659   1.405       .  A
C658        H663   1.084       .  S
C659        C660   1.411       .  A
C660        N661   1.438       .  S
N661        H665   1.046       .  S
N661        H666   1.045       .  S
N664       C1395   1.438       .  S
N664        H667   1.045       .  S
N664        H668   1.046       .  S
C669        C670   1.402       .  A
C669        C674   1.407       .  A
C669        H676   1.084       .  S
C670        C671   1.406       .  A
C671        C672   1.405   1_455  A
C671        N678   1.438       .  S
C672        C673   1.407       .  A
C672        H677   1.084       .  S
C673        C674   1.413   1_655  A
C674        N675   1.438       .  S
N675        H679   1.046       .  S
N675        H680   1.045   1_455  S
N678        H681   1.046       .  S
N678        H682   1.046   1_455  S
C683        C684   1.405       .  A
C683        C688   1.409       .  A
C683        H690   1.083       .  S
C684        C685   1.415       .  A
C685        C686   1.400       .  A
C685        N692   1.439       .  S
C686        C687   1.400       .  A
C686        H691   1.084       .  S
C687        C688   1.410       .  A
C688        N689   1.437       .  S
N689        H693   1.045       .  S
N689        H694   1.046       .  S
N692        H695   1.044       .  S
N692        H696   1.047       .  S
C697        C698   1.404       .  A
C697        C702   1.404       .  A
C697        H704   1.084       .  S
C698        C699   1.414       .  A
C699        C700   1.400       .  A
C699        N706   1.439       .  S
C700        C701   1.402       .  A
C700        H705   1.084       .  S
C701        C702   1.414       .  A
C702        N703   1.432       .  S
N703        H707   1.043       .  S
N703        H708   1.047       .  S
N706        H709   1.043       .  S
N706        H710   1.048       .  S
C711        C712   1.408       .  A
C711        C716   1.405       .  A
C711        H718   1.083       .  S
C712        C713   1.412       .  A
C713        C714   1.407       .  A
C713        N720   1.438       .  S
C714        C715   1.408       .  A
C714        H719   1.083       .  S
C715        C716   1.411       .  A
C716        N717   1.438       .  S
N717        H721   1.045       .  S
N717        H722   1.046       .  S
N720        H723   1.046       .  S
N720        H724   1.046       .  S
C725        C726   1.403       .  A
C725        C730   1.403       .  A
C725        H732   1.084       .  S
C726        C727   1.413       .  A
C727        C728   1.402       .  A
C727        N734   1.432       .  S
C728        C729   1.402       .  A
C728        H733   1.084       .  S
C729        C730   1.413       .  A
C730        N731   1.433       .  S
N731        H735   1.045       .  S
N731        H736   1.046       .  S
N734        H737   1.046       .  S
N734        H738   1.045       .  S
In739       O741   2.201       .  S
In739       O742   2.251       .  S
In739       O750   2.209       .  S
In739       O744   2.233       .  S
In739       O746   2.246       .  S
In739       O747   2.237       .  S
In739       O748   2.194       .  S
In739       O751   2.212       .  S
C740        O746   1.272       .  A
C740        O748   1.264       .  A
C740       C1422   1.479       .  S
O741        C749   1.265       .  A
O742        C749   1.272       .  A
C743        O750   1.265       .  A
C743        O744   1.271       .  A
C743       C1467   1.482       .  S
C745        O747   1.271       .  A
C745        O751   1.265       .  A
C745       C1453   1.487       .  S
C749       C1436   1.480       .  S
In752       O754   2.217       .  S
In752       O755   2.252       .  S
In752       O763   2.217       .  S
In752       O759   2.254       .  S
In752       O760   2.265       .  S
In752       O761   2.225       .  S
C753        O759   1.266       .  A
C753        O761   1.260       .  A
C753       C1408   1.471       .  S
O754        C762   1.263       .  A
O755        C762   1.270       .  A
C756        O757   1.269       .  A
C756       C1464   1.482       .  S
C758        O760   1.268       .  A
C762       C1450   1.488       .  S
In765       O767   2.205       .  S
In765       O768   2.244       .  S
In765       O776   2.205       .  S
In765       O770   2.234       .  S
In765       O772   2.243       .  S
C766        O774   1.263       .  A
C766       C1380   1.471       .  S
O767        C775   1.265       .  A
O768        C775   1.270       .  A
C769        O776   1.264       .  A
C769        O770   1.270       .  A
C769       C1369   1.483       .  S
C771        O773   1.269       .  A
C771        O777   1.265       .  A
C771       C1352   1.483       .  S
C775       C1439   1.478       .  S
In778       O780   2.222       .  S
In778       O781   2.233       .  S
In778       O789   2.206       .  S
In778       O783   2.240       .  S
In778       O785   2.251       .  S
In778       O786   2.247       .  S
In778       O787   2.204       .  S
In778       O790   2.214       .  S
C779        O785   1.269       .  A
C779        O787   1.262       .  A
C779       C1338   1.483       .  S
O780        C788   1.264       .  A
O781        C788   1.268       .  A
C782        O789   1.264       .  A
C782        O783   1.270       .  A
C782       C1366   1.483       .  S
C784        O786   1.268       .  A
C784        O790   1.262       .  A
C784       C1327   1.468       .  S
C788       C1355   1.484       .  S
In791       O793   2.213       .  S
In791       O794   2.235       .  S
In791       O802   2.202       .  S
In791       O796   2.238       .  S
In791       O798   2.263       .  S
In791       O799   2.247       .  S
In791       O800   2.206       .  S
In791       O803   2.211       .  S
C792        O798   1.271       .  A
C792        O800   1.263       .  A
C792       C1271   1.483       .  S
O793        C801   1.264       .  A
O794        C801   1.270       .  A
C795        O802   1.264       .  A
C795        O796   1.273       .  A
C795       C1313   1.481       .  S
C797        O799   1.270       .  A
C797        O803   1.264       .  A
C797       C1282   1.477       .  S
C801       C1299   1.483       .  S
In804       O806   2.206       .  S
In804       O807   2.243       .  S
In804       O815   2.195       .  S
In804       O809   2.229       .  S
In804       O811   2.224       .  S
In804       O812   2.237       .  S
In804       O813   2.200       .  S
In804       O816   2.203       .  S
C805        O811   1.270       .  A
C805        O813   1.266       .  A
C805       C1383   1.467       .  S
O806        C814   1.264       .  A
O807        C814   1.271       .  A
C808        O815   1.262       .  A
C808        O809   1.271       .  A
C808       C1310   1.479       .  S
C810        O812   1.272       .  A
C810        O816   1.264       .  A
C810       C1296   1.484       .  S
C814       C1425   1.473       .  S
In817       O820   2.252       .  S
In817       O824   2.246       .  S
In817       O825   2.241       .  S
In817       O826   2.220       .  S
In817       O829   2.199       .  S
C818        O824   1.268       .  A
C818        O826   1.262       .  A
C818       C1257   1.475       .  S
O820        C827   1.269       .  A
C821        O828   1.263       .  A
C821        O822   1.270       .  A
C821       C1229   1.478       .  S
C823        O825   1.271       .  A
C823        O829   1.264       .  A
C823       C1243   1.482       .  S
In830       O832   2.226       .  S
In830       O833   2.241       .  S
In830       O841   2.211       .  S
In830       O835   2.242       .  S
In830       O837   2.264       .  S
In830       O838   2.268       .  S
In830       O839   2.215       .  S
In830       O842   2.231       .  S
C831        O837   1.267       .  A
C831        O839   1.260       .  A
C831       C1285   1.475       .  S
O832        C840   1.262       .  A
O833        C840   1.268       .  A
C834        O841   1.263       .  A
C834        O835   1.268       .  A
C834       C1226   1.480       .  S
C836        O838   1.266       .  A
C836        O842   1.260       .  A
C836       C1201   1.484       .  S
C840       C1240   1.484       .  S
In843       O845   2.217       .  S
In843       O846   2.261       .  S
In843       O854   2.218       .  S
In843       O848   2.242       .  S
In843       O850   2.268       .  S
In843       O851   2.246       .  S
In843       O852   2.207       .  S
In843       O855   2.223       .  S
C844        O850   1.269       .  A
C844        O852   1.263       .  A
C844       C1184   1.484       .  S
O845        C853   1.263       .  A
O846        C853   1.269       .  A
C847        O854   1.263       .  A
C847        O848   1.271       .  A
C847       C1156   1.485       .  S
C849        O851   1.269       .  A
C849        O855   1.264       .  A
C849       C1170   1.486       .  S
C853       C1145   1.481       .  S
In856       O858   2.224       .  S
In856       O867   2.197       .  S
In856       O861   2.269       .  S
In856       O863   2.276       .  S
In856       O864   2.258       .  S
In856       O868   2.232       .  S
C857        O863   1.269       .  A
O859        C866   1.267   1_554  A
C860        O867   1.261       .  A
C860        O861   1.272       .  A
C860       C1159   1.488       .  S
C862        O864   1.267       .  A
C862        O868   1.264       .  A
C862       C1198   1.481       .  S
C866       C1173   1.487       .  S
In869       O871   2.218   1_455  S
In869       O872   2.245       .  S
In869       O880   2.211       .  S
In869       O874   2.239   1_455  S
In869       O876   2.255   1_455  S
In869       O877   2.249       .  S
In869       O878   2.202       .  S
In869       O881   2.223       .  S
C870        O876   1.270       .  A
C870        O878   1.262   1_655  A
C870       C1103   1.472       .  S
O871        C879   1.262   1_655  A
O872        C879   1.269       .  A
C873        O880   1.263       .  A
C873        O874   1.271   1_455  A
C873       C1114   1.479       .  S
C875        O877   1.270       .  A
C875        O881   1.265       .  A
C875       C1397   1.482       .  S
C879       C1131   1.486       .  S
In882       O884   2.217   1_455  S
In882       O885   2.265   1_455  S
In882       O893   2.211   1_455  S
In882       O887   2.240       .  S
In882       O889   2.251       .  S
In882       O890   2.257   1_455  S
In882       O891   2.214       .  S
In882       O894   2.213       .  S
C883        O889   1.266       .  A
C883        O891   1.261       .  A
C883       C1086   1.466       .  S
O884        C892   1.262       .  A
O885        C892   1.270       .  A
C886        O893   1.263   1_455  A
C886        O887   1.269       .  A
C886       C1117   1.479       .  S
C888        O890   1.269   1_455  A
C888        O894   1.260       .  A
C888       C1128   1.485       .  S
C892       C1215   1.481       .  S
In895       O897   2.205       .  S
In895       O898   2.237       .  S
In895       O906   2.211       .  S
In895       O900   2.239       .  S
In895       O902   2.238       .  S
In895       O903   2.268       .  S
In895       O904   2.213       .  S
In895       O907   2.202       .  S
C896        O902   1.269       .  A
C896        O904   1.265       .  A
C896       C1411   1.482       .  S
O897        C905   1.264       .  A
O898        C905   1.271       .  A
C899        O906   1.262       .  A
C899        O900   1.270       .  A
C899       C1075   1.484       .  S
C901        O903   1.270       .  A
C901        O907   1.262       .  A
C901       C1100   1.488       .  S
C905       C1061   1.486       .  S
In908       O911   2.248       .  S
In908       O915   2.262       .  S
In908       O916   2.235       .  S
In908       O917   2.197       .  S
In908       O920   2.210       .  S
C909        O915   1.273       .  A
C909        O917   1.264       .  A
C909       C1187   1.479       .  S
O910        C918   1.266       .  A
C912        O919   1.264       .  A
C912        O913   1.272       .  A
C912       C1058   1.485       .  S
C914        O916   1.271       .  A
C914        O920   1.263       .  A
C914       C1072   1.485       .  S
C918       C1044   1.475       .  S
In921       O923   2.208   1_545  S
In921       O924   2.245       .  S
In921       O932   2.211       .  S
In921       O926   2.237   1_545  S
In921       O928   2.250   1_545  S
In921       O929   2.260       .  S
In921       O930   2.204       .  S
In921       O933   2.216       .  S
C922        O928   1.268       .  A
C922        O930   1.261   1_565  A
C922       C1002   1.471       .  S
O923        C931   1.263   1_565  A
O924        C931   1.270       .  A
C925        O932   1.263       .  A
C925        O926   1.267   1_545  A
C925       C1030   1.482       .  S
C927        O929   1.268       .  A
C927        O933   1.261       .  A
C927       C1324   1.482       .  S
C931       C1016   1.483       .  S
In934       O936   2.215       .  S
In934       O937   2.257       .  S
In934       O945   2.204       .  S
In934       O939   2.232   1_565  S
In934       O941   2.258   1_565  S
In934       O942   2.246       .  S
In934       O943   2.210       .  S
In934       O946   2.227   1_565  S
C935        O941   1.268       .  A
C935        O943   1.262   1_545  A
C935       C1047   1.481       .  S
O936        C944   1.262       .  A
O937        C944   1.270       .  A
C938        O945   1.264       .  A
C938        O939   1.269   1_565  A
C938       C1033   1.481   1_565  S
C940        O942   1.269       .  A
C940        O946   1.263   1_565  A
C940       C1019   1.487   1_565  S
C944       C1142   1.476       .  S
In947       O949   2.190       .  S
In947       O950   2.245       .  S
In947       O958   2.208       .  S
In947       O952   2.218       .  S
In947       O954   2.242       .  S
In947       O955   2.240       .  S
In947       O956   2.203       .  S
In947       O959   2.197       .  S
C948        O954   1.268       .  A
C948        O956   1.264       .  A
C948       C1254   1.468       .  S
O949        C957   1.263       .  A
O950        C957   1.271       .  A
C951        O958   1.264       .  A
C951        O952   1.270       .  A
C951        C977   1.475       .  S
C953        O955   1.272       .  A
C953        O959   1.263       .  A
C953        C988   1.480       .  S
C957       C1089   1.483       .  S
In960       O962   2.191       .  S
In960       O963   2.249       .  S
In960       O967   2.248       .  S
In960       O968   2.233       .  S
In960       O969   2.204       .  S
C961        O967   1.268       .  A
C961        O969   1.262       .  A
C961       C1341   1.471       .  S
O962        C970   1.261       .  A
O963        C970   1.269       .  A
C964        O971   1.263   1_556  A
C964        O965   1.270   1_556  A
C964        C991   1.480       .  S
C966        O968   1.270       .  A
C970        C974   1.477       .  S
C973        C974   1.403       .  A
C973        C978   1.406       .  A
C973        H980   1.084       .  S
C974        C975   1.414       .  A
C975        C976   1.399       .  A
C975        N982   1.438       .  S
C976        C977   1.399       .  A
C976        H981   1.084       .  S
C977        C978   1.416       .  A
C978        N979   1.438       .  S
N979        H983   1.046       .  S
N979        H984   1.045       .  S
N982        H985   1.046       .  S
N982        H986   1.045       .  S
C987        C988   1.402       .  A
C987        C992   1.405       .  A
C987        H994   1.083       .  S
C988        C989   1.416       .  A
C989        C990   1.403       .  A
C989        N996   1.439       .  S
C990        C991   1.401       .  A
C990        H995   1.084       .  S
C991        C992   1.415       .  A
C992        N993   1.438       .  S
N993        H997   1.045       .  S
N996        H999   1.046       .  S
N996       H1000   1.045       .  S
C1001      C1002   1.401       .  A
C1001      C1006   1.399       .  A
C1001      H1008   1.084       .  S
C1002      C1003   1.413       .  A
C1004      H1009   1.084       .  S
C1005      C1006   1.415       .  A
C1006      N1007   1.433       .  S
N1007      H1011   1.044       .  S
N1007      H1012   1.046       .  S
N1010      H1014   1.046       .  S
C1015      C1016   1.406   1_565  A
C1015      C1020   1.405   1_556  A
C1015      H1022   1.083       .  S
C1017      C1018   1.408       .  A
C1017      N1024   1.438       .  S
C1018      C1019   1.408       .  A
C1018      H1023   1.083       .  S
C1020      N1021   1.438       .  S
N1021      H1025   1.046       .  S
N1024      H1028   1.046       .  S
C1029      C1030   1.406       .  A
C1029      C1034   1.403       .  A
C1029      H1036   1.083       .  S
C1030      C1031   1.412   1_545  A
C1031      C1032   1.403       .  A
C1031      N1038   1.438       .  S
C1032      C1033   1.407   1_565  A
C1032      H1037   1.083       .  S
C1033      C1034   1.411       .  A
C1034      N1035   1.438       .  S
N1035      H1039   1.046       .  S
N1035      H1040   1.045       .  S
N1038      H1041   1.046       .  S
N1038      H1042   1.046       .  S
C1043      C1044   1.400       .  A
C1043      C1048   1.400       .  A
C1043      H1050   1.084       .  S
C1044      C1045   1.410       .  A
C1045      C1046   1.411       .  A
C1045      N1052   1.437       .  S
C1046      C1047   1.407       .  A
C1046      H1051   1.084       .  S
C1047      C1048   1.414       .  A
C1048      N1049   1.438   1_545  S
N1049      H1053   1.045       .  S
N1049      H1054   1.046       .  S
N1052      H1055   1.046       .  S
N1052      H1056   1.046       .  S
C1057      C1058   1.407       .  A
C1057      C1062   1.397       .  A
C1057      H1064   1.084       .  S
C1058      C1059   1.411       .  A
C1059      C1060   1.406       .  A
C1059      N1066   1.438       .  S
C1060      C1061   1.409       .  A
C1060      H1065   1.083       .  S
C1061      C1062   1.414       .  A
C1062      N1063   1.432       .  S
N1063      H1067   1.045       .  S
N1063      H1068   1.045       .  S
N1066      H1069   1.046       .  S
N1066      H1070   1.045       .  S
C1071      C1072   1.403       .  A
C1071      C1076   1.398       .  A
C1071      H1078   1.084       .  S
C1072      C1073   1.420       .  A
C1073      C1074   1.398       .  A
C1073      N1080   1.432       .  S
C1074      C1075   1.403       .  A
C1074      H1079   1.084       .  S
C1075      C1076   1.419       .  A
C1076      N1077   1.433       .  S
N1077      H1081   1.047       .  S
N1077      H1082   1.044       .  S
N1080      H1083   1.048       .  S
N1080      H1084   1.043       .  S
C1085      C1086   1.403       .  A
C1085      C1090   1.409       .  A
C1085      H1092   1.084       .  S
C1086      C1087   1.411       .  A
C1087      C1088   1.396       .  A
C1087      N1094   1.440       .  S
C1088      C1089   1.407       .  A
C1088      H1093   1.084       .  S
C1089      C1090   1.414       .  A
C1090      N1091   1.437       .  S
N1091      H1095   1.045       .  S
N1091      H1096   1.046       .  S
N1094      H1097   1.043       .  S
N1094      H1098   1.046       .  S
C1099      C1100   1.407       .  A
C1099      C1104   1.400       .  A
C1099      H1106   1.083       .  S
C1100      C1101   1.416       .  A
C1101      C1102   1.412       .  A
C1101      N1108   1.437       .  S
C1102      C1103   1.403       .  A
C1102      H1107   1.084       .  S
C1103      C1104   1.406       .  A
C1104      N1105   1.439   1_655  S
N1105      H1109   1.046       .  S
N1105      H1110   1.046       .  S
N1108      H1111   1.046       .  S
N1108      H1112   1.045       .  S
C1113      C1118   1.397       .  A
C1113      H1120   1.084       .  S
C1114      C1115   1.419       .  A
C1115      C1116   1.399   1_556  A
C1115      N1122   1.433       .  S
C1116      H1121   1.084       .  S
C1117      C1118   1.417   1_455  A
C1118      N1119   1.432       .  S
N1119      H1123   1.044       .  S
N1119      H1124   1.045       .  S
N1122      H1125   1.044       .  S
N1122      H1126   1.047       .  S
C1127      C1128   1.407       .  A
C1127      C1132   1.399       .  A
C1127      H1134   1.084       .  S
C1128      C1129   1.414   1_455  A
C1129      C1130   1.401       .  A
C1129      N1136   1.432       .  S
C1130      C1131   1.408   1_655  A
C1130      H1135   1.084       .  S
C1131      C1132   1.414       .  A
C1132      N1133   1.432       .  S
N1133      H1137   1.040       .  S
N1133      H1138   1.051       .  S
N1136      H1139   1.047       .  S
N1136      H1140   1.043       .  S
C1141      C1142   1.407       .  A
C1141      C1146   1.409       .  A
C1141      H1148   1.084       .  S
C1142      C1143   1.416       .  A
C1143      C1144   1.401       .  A
C1143      N1150   1.439       .  S
C1144      C1145   1.404       .  A
C1144      H1149   1.084       .  S
C1145      C1146   1.410       .  A
C1146      N1147   1.438       .  S
N1147      H1151   1.047       .  S
N1147      H1152   1.044       .  S
N1150      H1153   1.041       .  S
N1150      H1154   1.045       .  S
C1155      C1156   1.400       .  A
C1155      C1160   1.403       .  A
C1155      H1162   1.084       .  S
C1156      C1157   1.418       .  A
C1157      C1158   1.410       .  A
C1157      N1164   1.438       .  S
C1158      C1159   1.404       .  A
C1158      H1163   1.083       .  S
C1159      C1160   1.418       .  A
C1160      N1161   1.439       .  S
N1161      H1165   1.045       .  S
N1161      H1166   1.046       .  S
N1164      H1167   1.045       .  S
N1164      H1168   1.046       .  S
C1169      C1170   1.406       .  A
C1169      C1174   1.400       .  A
C1169      H1176   1.084       .  S
C1170      C1171   1.415       .  A
C1171      C1172   1.400       .  A
C1171      N1178   1.432       .  S
C1172      C1173   1.407       .  A
C1172      H1177   1.084       .  S
C1173      C1174   1.416       .  A
C1174      N1175   1.432       .  S
N1175      H1179   1.043       .  S
N1175      H1180   1.048       .  S
N1178      H1181   1.046       .  S
N1178      H1182   1.044       .  S
C1183      C1184   1.407       .  A
C1183      C1188   1.407   1_565  A
C1183      H1190   1.084       .  S
C1184      C1185   1.413       .  A
C1185      C1186   1.401   1_565  A
C1185      N1192   1.439       .  S
C1186      C1187   1.401       .  A
C1186      H1191   1.084       .  S
C1187      C1188   1.414       .  A
C1188      N1189   1.432       .  S
N1189      H1193   1.043       .  S
N1189      H1194   1.048       .  S
N1192      H1195   1.048       .  S
N1192      H1196   1.043       .  S
C1197      C1198   1.405       .  A
C1197      C1202   1.409       .  A
C1197      H1204   1.084       .  S
C1198      C1199   1.410       .  A
C1199      C1200   1.407       .  A
C1199      N1206   1.438       .  S
C1200      C1201   1.406       .  A
C1200      H1205   1.084       .  S
C1201      C1202   1.411       .  A
C1202      N1203   1.437       .  S
N1203      H1207   1.045       .  S
N1203      H1208   1.046       .  S
N1206      H1209   1.046       .  S
N1206      H1210   1.046       .  S
C1211      C1212   1.399       .  A
C1211      C1216   1.404       .  A
C1211      H1218   1.084       .  S
C1212      C1213   1.415       .  A
C1213      C1214   1.409       .  A
C1213      N1220   1.438       .  S
C1214      C1215   1.403       .  A
C1214      H1219   1.084       .  S
C1215      C1216   1.413       .  A
C1216      N1217   1.437       .  S
N1217      H1221   1.047       .  S
N1217      H1222   1.043       .  S
N1220      H1223   1.045       .  S
N1220      H1224   1.046       .  S
C1225      C1226   1.403       .  A
C1225      C1230   1.405       .  A
C1225      H1232   1.084       .  S
C1226      C1227   1.415       .  A
C1227      C1228   1.403       .  A
C1227      N1234   1.438       .  S
C1228      C1229   1.400       .  A
C1228      H1233   1.084       .  S
C1229      C1230   1.415       .  A
C1230      N1231   1.438       .  S
N1231      H1235   1.042       .  S
N1231      H1236   1.050       .  S
N1234      H1237   1.047       .  S
N1234      H1238   1.045       .  S
C1239      C1240   1.408       .  A
C1239      C1244   1.407       .  A
C1239      H1246   1.083       .  S
C1240      C1241   1.411       .  A
C1241      C1242   1.402       .  A
C1241      N1248   1.438       .  S
C1242      C1243   1.406       .  A
C1242      H1247   1.083       .  S
C1243      C1244   1.411       .  A
C1244      N1245   1.438       .  S
N1245      H1249   1.046       .  S
N1245      H1250   1.046       .  S
N1248      H1251   1.046       .  S
N1248      H1252   1.046       .  S
C1253      C1254   1.401       .  A
C1253      C1258   1.406   1_455  A
C1253      H1260   1.084       .  S
C1254      C1255   1.409       .  A
C1255      C1256   1.403       .  A
C1255      N1262   1.438       .  S
C1256      C1257   1.400   1_455  A
C1256      H1261   1.084       .  S
C1257      C1258   1.414       .  A
C1258      N1259   1.438       .  S
N1259      H1263   1.047       .  S
N1259      H1264   1.045       .  S
N1262      H1265   1.045       .  S
N1262      H1266   1.045       .  S
C1267      C1268   1.403       .  A
C1267      C1272   1.402       .  A
C1267      H1274   1.084       .  S
C1268      C1269   1.415       .  A
C1269      C1270   1.414       .  A
C1270      C1271   1.405       .  A
C1270      H1275   1.084       .  S
C1271      C1272   1.412       .  A
C1272      N1273   1.439       .  S
N1273      H1277   1.045       .  S
N1273      H1278   1.046       .  S
N1276      H1279   1.045       .  S
N1276      H1280   1.046       .  S
C1281      C1282   1.405       .  A
C1281      C1286   1.402       .  A
C1281      H1288   1.084       .  S
C1282      C1283   1.408       .  A
C1283      C1284   1.406       .  A
C1283      N1290   1.438       .  S
C1284      C1285   1.406       .  A
C1284      H1289   1.084       .  S
C1285      C1286   1.416       .  A
C1286      N1287   1.438       .  S
N1287      H1291   1.046       .  S
N1287      H1292   1.041       .  S
N1290      H1293   1.045       .  S
N1290      H1294   1.046       .  S
C1295      C1296   1.408       .  A
C1295      C1300   1.405       .  A
C1295      H1302   1.083       .  S
C1297      C1298   1.405   1_554  A
C1297      N1304   1.438       .  S
C1298      C1299   1.407       .  A
C1298      H1303   1.083       .  S
C1300      N1301   1.438       .  S
N1301      H1305   1.047       .  S
N1304      H1308   1.047   1_554  S
C1309      C1310   1.401       .  A
C1309      C1314   1.403       .  A
C1309      H1316   1.084       .  S
C1310      C1311   1.419       .  A
C1311      C1312   1.396       .  A
C1311      N1318   1.433       .  S
C1312      C1313   1.401       .  A
C1312      H1317   1.084       .  S
C1313      C1314   1.417       .  A
C1314      N1315   1.438       .  S
N1315      H1319   1.046       .  S
N1315      H1320   1.045       .  S
N1318      H1321   1.045       .  S
N1318      H1322   1.046       .  S
C1323      C1324   1.406       .  A
C1323      C1328   1.403       .  A
C1323      H1330   1.084       .  S
C1324      C1325   1.413       .  A
C1325      C1326   1.409       .  A
C1325      N1332   1.437       .  S
C1326      C1327   1.402       .  A
C1326      H1331   1.084       .  S
C1327      C1328   1.406       .  A
C1328      N1329   1.438       .  S
N1329      H1333   1.045       .  S
N1329      H1334   1.046       .  S
N1332      H1335   1.046       .  S
N1332      H1336   1.046       .  S
C1337      C1338   1.407       .  A
C1337      C1342   1.401       .  A
C1337      H1344   1.084       .  S
C1338      C1339   1.417       .  A
C1339      C1340   1.402   1_545  A
C1339      N1346   1.432       .  S
C1340      C1341   1.401       .  A
C1340      H1345   1.084       .  S
C1341      C1342   1.409   1_565  A
C1342      N1343   1.439   1_545  S
N1343      H1347   1.046   1_565  S
N1343      H1348   1.045       .  S
N1346      H1349   1.040       .  S
N1346      H1350   1.050       .  S
C1351      C1352   1.406       .  A
C1351      C1356   1.404       .  A
C1351      H1358   1.083       .  S
C1352      C1353   1.412       .  A
C1353      C1354   1.405       .  A
C1353      N1360   1.438       .  S
C1354      C1355   1.407       .  A
C1354      H1359   1.083       .  S
C1355      C1356   1.412       .  A
C1356      N1357   1.438       .  S
N1357      H1361   1.047       .  S
N1357      H1362   1.044       .  S
N1360      H1363   1.045       .  S
N1360      H1364   1.046       .  S
C1365      C1366   1.407       .  A
C1365      C1370   1.404       .  A
C1365      H1372   1.083       .  S
C1366      C1367   1.412       .  A
C1367      C1368   1.405       .  A
C1367      N1374   1.438       .  S
C1368      C1369   1.407       .  A
C1368      H1373   1.083       .  S
C1369      C1370   1.411       .  A
C1370      N1371   1.438       .  S
N1371      H1375   1.046       .  S
N1371      H1376   1.046       .  S
N1374      H1377   1.045       .  S
N1374      H1378   1.046       .  S
C1379      C1380   1.402       .  A
C1379      C1384   1.400       .  A
C1379      H1386   1.084       .  S
C1380      C1381   1.414       .  A
C1381      C1382   1.398       .  A
C1381      N1388   1.439       .  S
C1382      C1383   1.399       .  A
C1382      H1387   1.084       .  S
C1383      C1384   1.412       .  A
C1384      N1385   1.432       .  S
N1385      H1389   1.049       .  S
N1385      H1390   1.041       .  S
N1388      H1391   1.045       .  S
N1388      H1392   1.047       .  S
C1393      C1394   1.405       .  A
C1393      C1398   1.409       .  A
C1393      H1400   1.084       .  S
C1394      C1395   1.409   1_556  A
C1395      C1396   1.409   1_554  A
C1396      C1397   1.405       .  A
C1396      H1401   1.084   1_556  S
C1397      C1398   1.411       .  A
C1398      N1399   1.438       .  S
N1399      H1403   1.045       .  S
N1399      H1404   1.046       .  S
N1402      H1405   1.046       .  S
N1402      H1406   1.045       .  S
C1407      C1408   1.403       .  A
C1407      C1412   1.408       .  A
C1407      H1414   1.084       .  S
C1408      C1409   1.406       .  A
C1409      C1410   1.405   1_455  A
C1409      N1416   1.438       .  S
C1410      C1411   1.407       .  A
C1410      H1415   1.084       .  S
C1411      C1412   1.413   1_655  A
C1412      N1413   1.438       .  S
N1413      H1417   1.045       .  S
N1413      H1418   1.046   1_455  S
N1416      H1419   1.046       .  S
N1416      H1420   1.045   1_455  S
C1421      C1422   1.404       .  A
C1421      C1426   1.409       .  A
C1421      H1428   1.083       .  S
C1422      C1423   1.415       .  A
C1423      C1424   1.401       .  A
C1423      N1430   1.439       .  S
C1424      C1425   1.400       .  A
C1424      H1429   1.084       .  S
C1425      C1426   1.410       .  A
C1426      N1427   1.437       .  S
N1427      H1431   1.046       .  S
N1427      H1432   1.045       .  S
N1430      H1433   1.046       .  S
N1430      H1434   1.045       .  S
C1435      C1436   1.405       .  A
C1435      C1440   1.404       .  A
C1435      H1442   1.084       .  S
C1436      C1437   1.414       .  A
C1437      C1438   1.401       .  A
C1437      N1444   1.439       .  S
C1438      C1439   1.402       .  A
C1438      H1443   1.084       .  S
C1439      C1440   1.414       .  A
C1440      N1441   1.432       .  S
N1441      H1445   1.044       .  S
N1441      H1446   1.047       .  S
N1444      H1447   1.043       .  S
N1444      H1448   1.048       .  S
C1449      C1450   1.408       .  A
C1449      C1454   1.406       .  A
C1449      H1456   1.083       .  S
C1450      C1451   1.412       .  A
C1451      C1452   1.407       .  A
C1451      N1458   1.438       .  S
C1452      C1453   1.408       .  A
C1452      H1457   1.083       .  S
C1453      C1454   1.411       .  A
C1454      N1455   1.438       .  S
N1455      H1459   1.044       .  S
N1455      H1460   1.047       .  S
N1458      H1461   1.046       .  S
N1458      H1462   1.046       .  S
C1463      C1464   1.403       .  A
C1463      C1468   1.403       .  A
C1463      H1470   1.084       .  S
C1464      C1465   1.413       .  A
C1465      C1466   1.402       .  A
C1465      N1472   1.432       .  S
C1466      C1467   1.402       .  A
C1466      H1471   1.084       .  S
C1467      C1468   1.414       .  A
C1468      N1469   1.433       .  S
N1469      H1473   1.046       .  S
N1469      H1474   1.045       .  S
N1472      H1475   1.046       .  S
N1472      H1476   1.045       .  S
