geometry optimzed in LAMMPS
_audit_creation_date              2020-12-01 
_audit_creation_method            'lammps2cif' 
_symmetry_space_group_name_H-M    'P1' 
_symmetry_Int_Tables_number       1 
_symmetry_cell_setting            triclinic 
loop_ 
_symmetry_equiv_pos_as_xyz 
  x,y,z 
_cell_length_a                    29.39470644 
_cell_length_b                    29.392843441206402 
_cell_length_c                    29.39347053774438 
_cell_angle_alpha                 89.95597664454297 
_cell_angle_beta                  90.04743990970252 
_cell_angle_gamma                 90.04331992211422 
loop_ 
_atom_site_label 
_atom_site_type_symbol 
_atom_site_fract_x 
_atom_site_fract_y 
_atom_site_fract_z 
_atom_site_charge 
C1          C  0.68502806  0.36779093  0.31192026     0.82100
N2          N  0.70490846  0.34776648  0.34827654    -0.76200
C3          C  0.68545045  0.31106734  0.36808832     0.84500
N4          N  0.64691104  0.29326066  0.35029829    -0.76100
C5          C  0.62681493  0.31320722  0.31397908     0.84600
N6          N  0.64650538  0.34985270  0.29420941    -0.77900
C7          C  0.68646904  0.68665592  0.31391772     0.82100
N8          N  0.70619435  0.70570404  0.35095716    -0.76200
C9          C  0.68995522  0.74531228  0.36788119     0.84500
N10         N  0.65536723  0.76687674  0.34647631    -0.76100
C11         C  0.63578007  0.74806739  0.30932090     0.84600
N12         N  0.65198571  0.70843653  0.29250852    -0.77900
C13         C  0.30843441  0.74915752  0.31724185     0.82100
N14         N  0.28796760  0.71325698  0.29689886    -0.76200
C15         C  0.25024078  0.69450748  0.31547999     0.84500
N16         N  0.23188682  0.71291763  0.35344022    -0.76100
C17         C  0.25228720  0.74878889  0.37390533     0.84600
N18         N  0.28996490  0.76754495  0.35517976    -0.77900
C19         C  0.30831908  0.74795206  0.74718051     0.82100
N20         N  0.28962613  0.76659232  0.70946966    -0.76200
C21         C  0.25298715  0.74700816  0.68962682     0.84500
N22         N  0.23387263  0.70972785  0.70876327    -0.76100
C23         C  0.25249037  0.69087316  0.74642970     0.84600
N24         N  0.28913912  0.71061878  0.76607663    -0.77900
C25         C  0.68722486  0.31469871  0.68606524     0.82100
N26         N  0.70676543  0.35147085  0.70580646    -0.76200
C27         C  0.69021127  0.36777632  0.74554376     0.84500
N28         N  0.65547890  0.34602518  0.76651980    -0.76100
C29         C  0.63608185  0.30911858  0.74702966     0.84600
N30         N  0.65260744  0.29291278  0.70727203    -0.77900
C31         C  0.68363363  0.75159884  0.69551261     0.82100
N32         N  0.64418578  0.76790776  0.71268314    -0.76200
C33         C  0.62433570  0.74710308  0.74868001     0.84500
N34         N  0.64513584  0.71127067  0.76883814    -0.76100
C35         C  0.68457770  0.69489534  0.75169475     0.84600
N36         N  0.70422245  0.71567466  0.71562474    -0.77900
C37         C  0.30854814  0.31716607  0.74914217     0.82100
N38         N  0.28772241  0.29663248  0.71358242    -0.76200
C39         C  0.25049094  0.31568871  0.69436508     0.84500
N40         N  0.23297094  0.35441960  0.71197426    -0.76100
C41         C  0.25375415  0.37513239  0.74749191     0.84600
N42         N  0.29093117  0.35588145  0.76672369    -0.77900
C43         C  0.31122350  0.31424557  0.31367678     0.82100
N44         N  0.29105834  0.35087186  0.29438950    -0.76200
C45         C  0.25298207  0.36873845  0.31302347     0.84500
N46         N  0.23396197  0.34871093  0.34987687    -0.76100
C47         C  0.25403218  0.31205853  0.36925179     0.84600
N48         N  0.29208954  0.29424164  0.35049317    -0.77900
O49         O  0.03910207  0.10040872  0.53237069    -0.53500
O50         O  0.86881709  0.18635792  0.47282306    -0.61400
C51         C  0.83133138  0.16922918  0.45927340     0.99400
O52         O  0.18415021  0.99272933  0.53668697    -0.66600
O53         O  0.10002940  0.03266307  0.58415865    -0.64600
C54         C  0.73268867  0.03051418  0.52834890     0.91500
O55         O  0.93232040  0.24615457  0.52582368    -0.66700
C56         C  0.82630942  0.17414229  0.58476243     0.99000
C57         C  0.97029318  0.26747810  0.52927723     0.92000
Ti58       Ti  0.91643594  0.17324723  0.52588269     1.51200
Ti59       Ti  0.02242978  0.88865795  0.53660484     1.51300
O60         O  0.96700779  0.16204090  0.57817493    -0.60600
O61         O  0.83878167  0.02817686  0.47932815    -0.64600
C62         C  0.10840119  0.89162997  0.60188091     0.99400
O63         O  0.89958289  0.96101200  0.53232709    -0.53600
C64         C  0.82925548  0.88804073  0.46982358     0.99200
Ti65       Ti  0.82710975  0.08406182  0.52573990     1.51000
Ti66       Ti  0.02313084  0.17308224  0.53210500     1.53000
Ti67       Ti  0.11175663  0.08416624  0.53282684     1.49300
O68         O  0.81254174  0.93060921  0.58445131    -0.60300
O69         O  0.75418553  0.99265716  0.53084846    -0.66700
O70         O  0.00804675  0.24586360  0.53211043    -0.66800
O71         O  0.89985881  0.10050666  0.52635819    -0.53500
O72         O  0.10038580  0.02915466  0.48552431    -0.64500
O73         O  0.07301813  0.87287796  0.48772633    -0.61400
O74         O  0.97249563  0.16173292  0.47969128    -0.60600
O75         O  0.86410463  0.87372150  0.58191065    -0.61900
O76         O  0.00728965  0.81587585  0.53635580    -0.66700
O77         O  0.86482734  0.18975909  0.57322194    -0.61400
O78         O  0.03861555  0.96139091  0.53645794    -0.53500
C79         C  0.96952342  0.79414575  0.53448000     0.92000
O80         O  0.83787710  0.03319362  0.57782385    -0.64500
O81         O  0.06969954  0.18688582  0.58558643    -0.62000
O82         O  0.07080260  0.87483091  0.58852632    -0.61400
C83         C  0.10890321  0.17210718  0.59631573     0.99300
C84         C  0.82739089  0.89170440  0.59608295     0.99200
C85         C  0.20586089  0.03048602  0.53440942     0.91300
O86         O  0.12503923  0.92943742  0.58891617    -0.60700
O87         O  0.81432344  0.13173438  0.47284663    -0.60700
C88         C  0.11128042  0.88885904  0.47574315     0.99000
Ti89       Ti  0.11134233  0.97759989  0.53677083     1.51000
O90         O  0.86826163  0.87328513  0.48106532    -0.62000
O91         O  0.81055343  0.13565693  0.57321814    -0.60800
O92         O  0.12650209  0.13149205  0.48038184    -0.60300
O93         O  0.93138229  0.81536180  0.53356485    -0.66900
O94         O  0.07563173  0.18866151  0.48491661    -0.61900
O95         O  0.18461860  0.06857236  0.53292981    -0.66500
O96         O  0.81170778  0.92500871  0.48371667    -0.60200
Ti97       Ti  0.91574265  0.88828857  0.53322260     1.53200
O98         O  0.12679428  0.13574896  0.58125620    -0.60300
O99         O  0.97059016  0.89951796  0.48563759    -0.60600
O100        O  0.12728410  0.92693969  0.48817913    -0.60800
C101        C  0.11217886  0.17096242  0.47020373     0.99300
O102        O  0.75415263  0.06844438  0.52537870    -0.66700
Ti103      Ti  0.82695763  0.97730264  0.53136212     1.49500
O104        O  0.96753257  0.90002784  0.58426376    -0.60700
O105        O  0.46842163  0.96102392  0.10027631    -0.53500
O106        O  0.52164424  0.13295875  0.18710260    -0.61400
C107        C  0.53511701  0.17047554  0.17028832     0.99400
O108        O  0.46199822  0.81574085  0.99276620    -0.66600
O109        O  0.41596026  0.89959652  0.03382604    -0.64600
C110        C  0.47066775  0.26740071  0.02971626     0.91500
O111        O  0.47067045  0.06823050  0.24593651    -0.66700
C112        C  0.40953677  0.17271486  0.17205929     0.99000
C113        C  0.47008898  0.03016796  0.26738217     0.92000
Ti114      Ti  0.47058788  0.08390689  0.17295554     1.51200
Ti115      Ti  0.46225989  0.97722668  0.88839946     1.51300
O116        O  0.42051645  0.03107637  0.16214066    -0.60600
O117        O  0.51940700  0.16111550  0.02924816    -0.64600
C118        C  0.39526765  0.89236601  0.89253183     0.99400
O119        O  0.46812275  0.10021586  0.96073325    -0.53600
C120        C  0.53364511  0.16901561  0.88952883     0.99200
Ti121      Ti  0.47119939  0.17302836  0.08350003     1.51000
Ti122      Ti  0.46931294  0.97706198  0.17297764     1.53000
Ti123      Ti  0.46889915  0.88834769  0.08394527     1.49300
O124        O  0.41799112  0.18812730  0.92827465    -0.60300
O125        O  0.46998740  0.24584819  0.99179956    -0.66700
O126        O  0.46989190  0.99224312  0.24583751    -0.66800
O127        O  0.47033704  0.10029505  0.10014455    -0.53500
O128        O  0.51441147  0.89998842  0.02757857    -0.64500
O129        O  0.51010500  0.92596977  0.87201814    -0.61400
O130        O  0.51916484  0.02992097  0.16134110    -0.60600
O131        O  0.42077880  0.13600415  0.87209721    -0.61900
O132        O  0.46260930  0.99243275  0.81561972    -0.66700
O133        O  0.42114919  0.13428105  0.18814346    -0.61400
O134        O  0.46212188  0.96114730  0.96110866    -0.53500
C135        C  0.46620036  0.03015571  0.79401813     0.92000
O136        O  0.42077534  0.16230100  0.03099930    -0.64500
O137        O  0.41839434  0.92828893  0.18833165    -0.62000
O138        O  0.40938057  0.92953089  0.87521595    -0.61400
C139        C  0.40838141  0.88885602  0.17382502     0.99300
C140        C  0.40698816  0.17316215  0.88927672     0.99200
C141        C  0.46641840  0.79416604  0.03041616     0.91300
O142        O  0.40837657  0.87553392  0.93029065    -0.60700
O143        O  0.52266664  0.18688998  0.13223575    -0.60700
C144        C  0.52130763  0.88739259  0.88765487     0.99000
Ti145      Ti  0.46181081  0.88850439  0.97744263     1.51000
O146        O  0.52161188  0.13039093  0.87424319    -0.62000
O147        O  0.42217230  0.18878897  0.13397581    -0.60800
O148        O  0.52296223  0.87521330  0.13002069    -0.60300
O149        O  0.46866455  0.06815360  0.81530635    -0.66900
O150        O  0.51941497  0.92672504  0.18691777    -0.61900
O151        O  0.46971737  0.81551742  0.06832438    -0.66500
O152        O  0.51902186  0.18701922  0.92602958    -0.60200
Ti153      Ti  0.46815912  0.08380817  0.88808504     1.53200
O154        O  0.42237609  0.87177835  0.13671483    -0.60300
O155        O  0.51433822  0.02794835  0.89969483    -0.60600
O156        O  0.50897793  0.87167100  0.92582441    -0.60800
C157        C  0.53469760  0.89058277  0.16872186     0.99300
O158        O  0.47165138  0.24595253  0.06775195    -0.66700
Ti159      Ti  0.46925295  0.17294534  0.97669259     1.49500
O160        O  0.41581342  0.03313152  0.89945122    -0.60700
O161        O  0.90035074  0.53153639  0.96121165    -0.53500
O162        O  0.81344762  0.47474734  0.13263620    -0.61400
C163        C  0.83026173  0.46085180  0.17009393     0.99400
O164        O  0.00811423  0.53475386  0.81583432    -0.66600
O165        O  0.96897913  0.58304026  0.90012073    -0.64600
C166        C  0.97021464  0.52893662  0.26782580     0.91500
O167        O  0.75438286  0.52689295  0.06839232    -0.66700
C168        C  0.82676340  0.58632681  0.17380360     0.99000
C169        C  0.73305666  0.52901850  0.03033704     0.92000
Ti170      Ti  0.82727043  0.52677198  0.08424372     1.51200
Ti171      Ti  0.11197397  0.53573554  0.97747980     1.51300
O172        O  0.83866642  0.57804373  0.03265969    -0.60600
O173        O  0.97179853  0.47931174  0.16213767    -0.64600
C174        C  0.10927039  0.60068475  0.89161110     0.99400
O175        O  0.03900676  0.53107023  0.10043703    -0.53600
C176        C  0.11142291  0.46830738  0.17082115     0.99200
Ti177      Ti  0.91622666  0.52612216  0.17366805     1.51000
Ti178      Ti  0.82761034  0.53085885  0.97740880     1.53000
Ti179      Ti  0.91664070  0.53258826  0.88845496     1.49300
O180        O  0.07005070  0.58418600  0.18703242    -0.60300
O181        O  0.00796092  0.53131433  0.24610506    -0.66700
O182        O  0.75472404  0.53065454  0.99252245    -0.66800
O183        O  0.89988515  0.52669419  0.10092820    -0.53500
O184        O  0.97101735  0.48438517  0.89948887    -0.65100
O185        O  0.12849540  0.48785638  0.92618369    -0.61400
O186        O  0.83891747  0.47949068  0.02909126    -0.60600
O187        O  0.12715626  0.57902956  0.13603907    -0.61900
O188        O  0.18465970  0.53584528  0.99293852    -0.66700
O189        O  0.81128390  0.57524491  0.13506020    -0.61400
O190        O  0.03939829  0.53500299  0.96115761    -0.53500
C191        C  0.20614295  0.53306872  0.03078494     0.92000
O192        O  0.96731072  0.57786084  0.16232319    -0.64500
O193        O  0.81326148  0.58327590  0.92986467    -0.62000
O194        O  0.12556858  0.58845444  0.92982477    -0.61400
C195        C  0.82880721  0.59567293  0.89147323     0.99300
C196        C  0.10945943  0.59428107  0.17239957     0.99200
C197        C  0.97024561  0.53352371  0.79426605     0.91300
O198        O  0.07215871  0.58642911  0.87446905    -0.60700
O199        O  0.86813571  0.47355773  0.18698573    -0.60700
C200        C  0.11238474  0.47481590  0.88832656     0.99000
Ti201      Ti  0.02334608  0.53493234  0.88852618     1.51000
O202        O  0.12590443  0.47824642  0.13132441    -0.62000
O203        O  0.86483869  0.57392800  0.18993146    -0.60800
O204        O  0.86831453  0.48118322  0.87323449    -0.60300
O205        O  0.18469046  0.53091863  0.06872733    -0.66900
O206        O  0.81254098  0.48242810  0.92589203    -0.61900
O207        O  0.93217753  0.53302581  0.81558420    -0.66500
O208        O  0.07508621  0.48351238  0.18855498    -0.60200
Ti209      Ti  0.11177317  0.53103269  0.08415130     1.53200
O210        O  0.86593823  0.58207126  0.87400818    -0.60300
O211        O  0.10066985  0.48410097  0.02866645    -0.60600
O212        O  0.07358816  0.48565697  0.87279544    -0.60800
C213        C  0.82972113  0.46918574  0.88852284     0.99300
O214        O  0.93214550  0.52602606  0.24657917    -0.66700
Ti215      Ti  0.02298795  0.53118117  0.17322932     1.49500
O216        O  0.10032446  0.58266014  0.03289160    -0.60700
N217        N  0.96913222  0.48029936  0.48079082    -0.34700
N218        N  0.97288140  0.47999914  0.58204529    -0.55300
N219        N  0.97545997  0.58132263  0.58160457    -0.34700
N220        N  0.97309581  0.58163477  0.48037343    -0.55300
C221        C  0.97257718  0.43457191  0.48849319     0.28900
C222        C  0.97263361  0.48793356  0.43505908     0.28900
C223        C  0.97329358  0.57376652  0.62740825     0.28900
C224        C  0.97332794  0.62713503  0.57404076     0.28900
C225        C  0.97134045  0.43414145  0.57491087     0.37500
C226        C  0.97285038  0.48727294  0.62790557     0.37500
C227        C  0.97165310  0.57438964  0.43452150     0.37500
C228        C  0.97314446  0.62753037  0.48756822     0.37500
C229        C  0.97766412  0.41298157  0.44682346    -0.20000
C230        C  0.97769007  0.44622139  0.41353769    -0.20000
C231        C  0.97052647  0.61560295  0.64911642    -0.20000
C232        C  0.97054352  0.64884495  0.61587450    -0.20000
C233        C  0.97053084  0.41226596  0.61674186    -0.21100
C234        C  0.97150255  0.44551734  0.64991043    -0.21100
C235        C  0.97103903  0.61618857  0.41257531    -0.21100
C236        C  0.97200340  0.64943593  0.44576411    -0.21100
C237        C  0.97135056  0.41121433  0.53161479    -0.16400
C238        C  0.97150781  0.53104083  0.41164280    -0.16400
C239        C  0.97318168  0.65046127  0.53090157    -0.16400
C240        C  0.97310446  0.53062905  0.65072909    -0.16400
H241        H  0.98140192  0.37685062  0.44085072     0.16500
H242        H  0.98145674  0.44019489  0.37742151     0.16500
H243        H  0.96821946  0.62174293  0.68533744     0.16500
H244        H  0.96825836  0.68506778  0.62201591     0.16500
H245        H  0.96939499  0.37597213  0.62286691     0.14800
H246        H  0.97101004  0.43949934  0.68623604     0.14800
H247        H  0.97001231  0.62224614  0.37626835     0.14800
H248        H  0.97160543  0.68574978  0.43967552     0.14800
H249        H  0.96385176  0.50486561  0.50529818     0.28000
H250        H  0.97836348  0.55659212  0.55691214     0.28000
N251        N  0.51962134  0.02805779  0.48016678    -0.34700
N252        N  0.41815968  0.02789089  0.48026596    -0.55300
N253        N  0.41879998  0.02885621  0.58161535    -0.34700
N254        N  0.52025977  0.02795517  0.58157723    -0.55300
C255        C  0.51181462  0.02930262  0.43438647     0.28900
C256        C  0.56545439  0.02938542  0.48763830     0.28900
C257        C  0.37306694  0.02585961  0.57410671     0.28900
C258        C  0.42666578  0.02585675  0.62727754     0.28900
C259        C  0.42523440  0.02876589  0.43436070     0.37500
C260        C  0.37231162  0.02876158  0.48768485     0.37500
C261        C  0.56610813  0.02900485  0.57420875     0.37500
C262        C  0.51312312  0.02892878  0.62746106     0.37500
C263        C  0.55361823  0.03121087  0.41251206    -0.20000
C264        C  0.58702141  0.03126013  0.44567269    -0.20000
C265        C  0.35163452  0.02104084  0.61590281    -0.20000
C266        C  0.38503096  0.02103342  0.64903581    -0.20000
C267        C  0.38333528  0.02996353  0.41261855    -0.21100
C268        C  0.35023618  0.03002079  0.44597324    -0.21100
C269        C  0.58811994  0.03042438  0.61596576    -0.21100
C270        C  0.55496959  0.03043843  0.64927854    -0.21100
C271        C  0.46850622  0.02897133  0.41124387    -0.16400
C272        C  0.58890801  0.02918407  0.53077671    -0.16400
C273        C  0.46982695  0.02797353  0.65046198    -0.16400
C274        C  0.34955418  0.02794274  0.53111259    -0.16400
H275        H  0.55963588  0.03260160  0.37622385     0.16500
H276        H  0.62326127  0.03270110  0.43938725     0.16500
H277        H  0.31548864  0.01784232  0.62208633     0.16500
H278        H  0.37911801  0.01783788  0.68523016     0.16500
H279        H  0.37711452  0.03090291  0.37633714     0.14800
H280        H  0.31390440  0.03083881  0.44004284     0.14800
H281        H  0.62443704  0.03154899  0.62194750     0.14800
H282        H  0.56111702  0.03140043  0.68557342     0.14800
H283        H  0.49496267  0.02611835  0.50499921     0.28000
H284        H  0.44326080  0.03395493  0.55699313     0.28000
N285        N  0.51995786  0.48032930  0.03145535    -0.34700
N286        N  0.52039311  0.58165092  0.02845457    -0.55300
N287        N  0.41898234  0.58150532  0.02530792    -0.34700
N288        N  0.41858797  0.48019398  0.02883112    -0.55300
C289        C  0.56574319  0.48790078  0.02872984     0.28900
C290        C  0.51222191  0.43456879  0.02876522     0.28900
C291        C  0.42667443  0.62726696  0.02776424     0.28900
C292        C  0.37319962  0.57396255  0.02796548     0.28900
C293        C  0.56626786  0.57439455  0.02942331     0.37500
C294        C  0.51320343  0.62754431  0.02794147     0.37500
C295        C  0.42573088  0.43430529  0.02989728     0.37500
C296        C  0.37271466  0.48747227  0.02857323     0.37500
C297        C  0.58729529  0.44607770  0.02482912    -0.20000
C298        C  0.55396222  0.41286365  0.02483860    -0.20000
C299        C  0.38489786  0.64901092  0.03112823    -0.20000
C300        C  0.35159238  0.61580859  0.03124791    -0.20000
C301        C  0.58822029  0.61619576  0.02945474    -0.21100
C302        C  0.55502809  0.64944197  0.02851206    -0.21100
C303        C  0.38388555  0.41244911  0.03031325    -0.21100
C304        C  0.35072136  0.44570609  0.02947188    -0.21100
C305        C  0.58917120  0.53103228  0.02958197    -0.16400
C306        C  0.46902048  0.41128532  0.02970733    -0.16400
C307        C  0.34983764  0.53082106  0.02823134    -0.16400
C308        C  0.46987558  0.65051093  0.02775706    -0.16400
H309        H  0.62347172  0.43994606  0.02192947     0.16500
H310        H  0.55996605  0.37666030  0.02197039     0.16500
H311        H  0.37885185  0.68522026  0.03382440     0.16500
H312        H  0.31541272  0.62196100  0.03405514     0.16500
H313        H  0.62453590  0.62225684  0.02999672     0.14800
H314        H  0.56113506  0.68575577  0.02840706     0.14800
H315        H  0.37774062  0.37615007  0.03101264     0.14800
H316        H  0.31439738  0.43967340  0.02961398     0.14800
H317        H  0.49536555  0.50500820  0.03564905     0.28000
H318        H  0.44363886  0.55678277  0.02184152     0.28000
C319        C  0.25674727  0.53213024  0.03047790    -0.11400
C320        C  0.29881433  0.53126717  0.02955936    -0.13000
C321        C  0.64026594  0.53058468  0.02969634    -0.11400
C322        C  0.68238164  0.52979796  0.03000676    -0.13000
C323        C  0.97067964  0.52976086  0.31847560    -0.11400
C324        C  0.97119418  0.53057706  0.36057381    -0.13000
C325        C  0.97068177  0.53233194  0.74372259    -0.11400
C326        C  0.97171056  0.53116615  0.70169828    -0.13000
C327        C  0.47003381  0.31807844  0.02957028    -0.11400
C328        C  0.46931864  0.36019495  0.02952942    -0.13000
C329        C  0.46803240  0.74358334  0.02994033    -0.11400
C330        C  0.46939595  0.70153126  0.02900781    -0.13000
C331        C  0.46939742  0.02993394  0.31805298    -0.11400
C332        C  0.46869469  0.02954613  0.36016426    -0.13000
C333        C  0.46786370  0.02968060  0.74347445    -0.11400
C334        C  0.46931791  0.02884081  0.70144646    -0.13000
C335        C  0.68205026  0.03034046  0.52922745    -0.11400
C336        C  0.63996118  0.02989289  0.53021432    -0.13000
C337        C  0.25646701  0.02991133  0.53313252    -0.11400
C338        C  0.29852719  0.02892034  0.53185835    -0.13000
C339        C  0.97020947  0.74354016  0.53293943    -0.11400
C340        C  0.97151918  0.70148922  0.53148167    -0.13000
C341        C  0.97109463  0.36017116  0.53118777    -0.11400
C342        C  0.97064270  0.31809266  0.53025197    -0.13000
C343        C  0.14171159  0.19944175  0.44445369    -0.16600
C344        C  0.16927338  0.22608402  0.43038446     0.07400
C345        C  0.20174396  0.25802964  0.41610729     0.09300
C346        C  0.22783839  0.28449969  0.39925608    -0.17500
C347        C  0.22574386  0.39826289  0.28599889    -0.16600
C348        C  0.19956502  0.41458729  0.25929747     0.07400
C349        C  0.16761942  0.42836759  0.22663789     0.09300
C350        C  0.14057032  0.44231493  0.19943114    -0.17500
C351        C  0.34239940  0.28856871  0.28712954    -0.16600
C352        C  0.35928191  0.26254358  0.26072418     0.07400
C353        C  0.37234848  0.23004518  0.22842282     0.09300
C354        C  0.38496460  0.20237519  0.20126677    -0.17500
C355        C  0.22230958  0.28806389  0.66628181    -0.16600
C356        C  0.19568472  0.26125884  0.65083900     0.07400
C357        C  0.16368650  0.22850111  0.63735245     0.09300
C358        C  0.13704505  0.20105503  0.62306686    -0.17500
C359        C  0.22835044  0.40707792  0.77341972    -0.16600
C360        C  0.20233199  0.42447852  0.79951630     0.07400
C361        C  0.16981826  0.43793501  0.83168412     0.09300
C362        C  0.14217503  0.45061017  0.85887107    -0.17500
C363        C  0.38147848  0.20271923  0.86065645    -0.16600
C364        C  0.36798448  0.23075170  0.83423253     0.07400
C365        C  0.35469379  0.26401418  0.80271309     0.09300
C366        C  0.33847985  0.29073748  0.77649679    -0.17500
C367        C  0.71013420  0.78011548  0.66672576    -0.16600
C368        C  0.73670460  0.80670635  0.65085563     0.07400
C369        C  0.76991422  0.83812742  0.63717098     0.09300
C370        C  0.79800792  0.86405194  0.62284842    -0.17500
C371        C  0.79980470  0.62260646  0.86360526    -0.16600
C372        C  0.77203949  0.63691582  0.83732810     0.07400
C373        C  0.73891686  0.65047916  0.80576814     0.09300
C374        C  0.71199263  0.66623747  0.77946881    -0.17500
C375        C  0.59115650  0.77160077  0.77387345    -0.16600
C376        C  0.57265194  0.79731611  0.79947624     0.07400
C377        C  0.55827261  0.82979746  0.83122439     0.09300
C378        C  0.54527631  0.85748944  0.85817784    -0.17500
C379        C  0.71212999  0.29060289  0.65240747    -0.16600
C380        C  0.73763887  0.26485848  0.63385447     0.07400
C381        C  0.76938245  0.23214059  0.62011360     0.09300
C382        C  0.79648442  0.20422956  0.60797841    -0.17500
C383        C  0.80147719  0.44301265  0.85914630    -0.16600
C384        C  0.77520512  0.42874629  0.83133738     0.07400
C385        C  0.74380083  0.41450284  0.79833756     0.09300
C386        C  0.71768225  0.39775832  0.77183103    -0.17500
C387        C  0.60843812  0.28028164  0.77445715    -0.16600
C388        C  0.59247524  0.25373505  0.80105106     0.07400
C389        C  0.57750514  0.22228434  0.83371609     0.09300
C390        C  0.56173421  0.19634699  0.86103616    -0.17500
C391        C  0.13699799  0.86301831  0.62836771    -0.16600
C392        C  0.16462759  0.83538481  0.64004102     0.07400
C393        C  0.19772738  0.80224424  0.64894551     0.09300
C394        C  0.22511378  0.77480043  0.66155621    -0.17500
C395        C  0.22432493  0.66305159  0.77422906    -0.16600
C396        C  0.19721766  0.65003995  0.80178794     0.07400
C397        C  0.16470693  0.64011712  0.83525909     0.09300
C398        C  0.13759791  0.62761267  0.86307166    -0.17500
C399        C  0.33478021  0.77657855  0.77577432    -0.16600
C400        C  0.34641801  0.80410618  0.80350995     0.07400
C401        C  0.35517324  0.83704672  0.83685161     0.09300
C402        C  0.36755031  0.86437723  0.86447565    -0.17500
C403        C  0.22656205  0.77500284  0.40534423    -0.16600
C404        C  0.20055710  0.80097167  0.42292926     0.07400
C405        C  0.16813966  0.83285437  0.43717053     0.09300
C406        C  0.14065623  0.85975201  0.45070686    -0.17500
C407        C  0.22277097  0.66550802  0.28805677    -0.16600
C408        C  0.19649601  0.64912189  0.26145765     0.07400
C409        C  0.16464646  0.63488801  0.22885450     0.09300
C410        C  0.13796371  0.62055634  0.20145704    -0.17500
C411        C  0.38381070  0.85974663  0.20376322    -0.16600
C412        C  0.37060848  0.83312867  0.23178280     0.07400
C413        C  0.35671994  0.80162265  0.26484878     0.09300
C414        C  0.33948110  0.77573389  0.29126497    -0.17500
C415        C  0.71769175  0.77099204  0.39814433    -0.16600
C416        C  0.74386545  0.79731712  0.41508898     0.07400
C417        C  0.77509090  0.83042803  0.42947286     0.09300
C418        C  0.80111799  0.85846121  0.44375481    -0.17500
C419        C  0.71123209  0.65335151  0.28920012    -0.16600
C420        C  0.73698688  0.63524959  0.26337888     0.07400
C421        C  0.76931268  0.62195533  0.23104386     0.09300
C422        C  0.79688732  0.60989668  0.20356444    -0.17500
C423        C  0.56316324  0.86251081  0.19601670    -0.16600
C424        C  0.57883901  0.83545929  0.22225225     0.07400
C425        C  0.59320490  0.80294552  0.25408639     0.09300
C426        C  0.60857912  0.77616275  0.28076108    -0.17500
C427        C  0.71360269  0.28238523  0.39495730    -0.16600
C428        C  0.74138239  0.25540980  0.40770954     0.07400
C429        C  0.77522186  0.22347280  0.41806401     0.09300
C430        C  0.80321448  0.19696498  0.43136154    -0.17500
C431        C  0.80168176  0.43346710  0.19795221    -0.16600
C432        C  0.77372344  0.42006695  0.22447614     0.07400
C433        C  0.74013673  0.40895361  0.25646535     0.09300
C434        C  0.71269117  0.39538509  0.28340680    -0.17500
C435        C  0.56134457  0.19910218  0.19902167    -0.16600
C436        C  0.57337824  0.22647916  0.22670597     0.07400
C437        C  0.58333992  0.25922260  0.25982170     0.09300
C438        C  0.59723028  0.28621766  0.28698481    -0.17500
loop_ 
_geom_bond_atom_site_label_1 
_geom_bond_atom_site_label_2 
_geom_bond_distance 
_geom_bond_site_symmetry_2 
_ccdc_geom_bond_type 
C1            N2   1.352       .  A
C1            N6   1.353       .  A
C1          C434   1.421       .  S
N2            C3   1.352       .  A
C3            N4   1.353       .  A
C3          C427   1.421       .  S
N4            C5   1.353       .  A
C5            N6   1.353       .  A
C5          C438   1.419       .  S
C7            N8   1.354       .  A
C7           N12   1.354       .  A
C7          C419   1.421       .  S
N8            C9   1.354       .  A
C9           N10   1.353       .  A
C9          C415   1.423       .  S
N10          C11   1.353       .  A
C11          N12   1.353       .  A
C11         C426   1.423       .  S
C13          N14   1.354       .  A
C13          N18   1.354       .  A
C13         C414   1.423       .  S
N14          C15   1.353       .  A
C15          N16   1.353       .  A
C15         C407   1.424       .  S
N16          C17   1.354       .  A
C17          N18   1.354       .  A
C17         C403   1.422       .  S
C19          N20   1.353       .  A
C19          N24   1.352       .  A
C19         C399   1.421       .  S
N20          C21   1.353       .  A
C21          N22   1.353       .  A
C21         C394   1.421       .  S
N22          C23   1.353       .  A
C23          N24   1.353       .  A
C23         C395   1.422       .  S
C25          N26   1.354       .  A
C25          N30   1.354       .  A
C25         C379   1.421       .  S
N26          C27   1.354       .  A
C27          N28   1.353       .  A
C27         C386   1.423       .  S
N28          C29   1.353       .  A
C29          N30   1.353       .  A
C29         C387   1.424       .  S
C31          N32   1.353       .  A
C31          N36   1.353       .  A
C31         C367   1.423       .  S
N32          C33   1.354       .  A
C33          N34   1.354       .  A
C33         C375   1.422       .  S
N34          C35   1.353       .  A
C35          N36   1.353       .  A
C35         C374   1.423       .  S
C37          N38   1.353       .  A
C37          N42   1.354       .  A
C37         C366   1.422       .  S
N38          C39   1.353       .  A
C39          N40   1.353       .  A
C39         C355   1.423       .  S
N40          C41   1.354       .  A
C41          N42   1.354       .  A
C41         C359   1.422       .  S
C43          N44   1.353       .  A
C43          N48   1.354       .  A
C43         C351   1.422       .  S
N44          C45   1.353       .  A
C45          N46   1.354       .  A
C45         C347   1.423       .  S
N46          C47   1.354       .  A
C47          N48   1.354       .  A
C47         C346   1.423       .  S
O49         Ti67   2.189       .  S
O49         Ti66   2.187       .  S
O50          C51   1.275       .  A
O50         Ti58   2.130       .  S
C51         C430   1.421       .  S
C51          O87   1.274       .  A
O52          C85   1.282   1_565  A
O52         Ti89   2.186       .  S
O53         Ti89   2.162   1_545  S
O53         Ti67   2.164       .  S
C54         C335   1.489       .  S
C54          O69   1.282   1_545  A
C54         O102   1.284       .  A
O55          C57   1.284       .  A
O55         Ti58   2.193       .  S
C56         C382   1.421       .  S
C56          O91   1.268       .  A
C56          O77   1.268       .  A
C57         C342   1.488       .  S
C57          O70   1.282   1_655  A
Ti58         O71   2.193       .  S
Ti58         O74   2.163       .  S
Ti58         O60   2.163       .  S
Ti58         O77   2.116       .  S
Ti59        O104   2.164   1_455  S
Ti59         O99   2.160   1_455  S
Ti59         O78   2.190       .  S
Ti59         O76   2.185       .  S
Ti59         O73   2.120       .  S
Ti59         O82   2.124       .  S
O60         Ti66   2.159   1_655  S
O61        Ti103   2.166   1_545  S
O61         Ti65   2.164       .  S
C62         C391   1.421       .  S
C62          O82   1.272       .  A
C62          O86   1.272       .  A
O63         Ti97   2.190       .  S
O63        Ti103   2.188       .  S
C64         C418   1.423       .  S
C64          O90   1.270       .  A
C64          O96   1.271       .  A
Ti65         O80   2.162       .  S
Ti65         O71   2.192       .  S
Ti65        O102   2.193       .  S
Ti65         O91   2.119       .  S
Ti65         O87   2.126       .  S
Ti66         O74   2.167   1_455  S
Ti66         O94   2.125       .  S
Ti66         O70   2.185       .  S
Ti66         O81   2.123       .  S
Ti67         O72   2.159       .  S
Ti67         O98   2.126       .  S
Ti67         O92   2.120       .  S
Ti67         O95   2.191       .  S
O68          C84   1.271       .  A
O68        Ti103   2.120       .  S
O69        Ti103   2.187       .  S
O72         Ti89   2.160   1_545  S
O73          C88   1.269       .  A
O75          C84   1.273       .  A
O75         Ti97   2.130       .  S
O76          C79   1.282   1_455  A
O78         Ti89   2.190       .  S
C79         C339   1.488       .  S
C79          O93   1.284       .  A
O80        Ti103   2.161   1_545  S
O81          C83   1.271       .  A
C83         C358   1.423       .  S
C83          O98   1.271       .  A
C84         C370   1.423       .  S
C85         C337   1.488       .  S
C85          O95   1.283       .  A
O86         Ti89   2.124       .  S
C88         C406   1.422       .  S
C88         O100   1.268       .  A
Ti89        O100   2.117       .  S
O90         Ti97   2.119       .  S
O92         C101   1.270       .  A
O93         Ti97   2.193       .  S
O94         C101   1.270       .  A
O96        Ti103   2.127       .  S
Ti97        O104   2.164       .  S
Ti97         O99   2.160       .  S
C101        C343   1.423       .  S
O105       Ti123   2.190       .  S
O105       Ti122   2.189       .  S
O106        C107   1.271       .  A
O106       Ti114   2.121       .  S
C107        C435   1.419       .  S
C107        O143   1.271       .  A
O108        C141   1.282   1_556  A
O108       Ti145   2.185       .  S
O109       Ti145   2.162   1_554  S
O109       Ti123   2.167       .  S
C110        C327   1.490       .  S
C110        O125   1.283   1_554  A
C110        O158   1.283       .  A
O111        C113   1.284       .  A
O111       Ti114   2.194       .  S
C112        C354   1.422       .  S
C112        O147   1.270       .  A
C112        O133   1.271       .  A
C113        C331   1.490       .  S
C113        O126   1.282   1_545  A
Ti114       O127   2.193       .  S
Ti114       O130   2.163       .  S
Ti114       O116   2.162       .  S
Ti114       O133   2.123       .  S
Ti115       O160   2.162   1_565  S
Ti115       O155   2.162   1_565  S
Ti115       O134   2.188       .  S
Ti115       O132   2.185       .  S
Ti115       O129   2.118       .  S
Ti115       O138   2.128       .  S
O116       Ti122   2.164   1_545  S
O117       Ti159   2.163   1_554  S
O117       Ti121   2.163       .  S
C118        C402   1.421       .  S
C118        O138   1.274       .  A
C118        O142   1.274       .  A
O119       Ti153   2.190       .  S
O119       Ti159   2.189       .  S
C120        C390   1.424       .  S
C120        O146   1.271       .  A
C120        O152   1.272       .  A
Ti121       O136   2.162       .  S
Ti121       O127   2.193       .  S
Ti121       O158   2.193       .  S
Ti121       O147   2.121       .  S
Ti121       O143   2.122       .  S
Ti122       O130   2.162   1_565  S
Ti122       O150   2.128       .  S
Ti122       O126   2.188       .  S
Ti122       O137   2.120       .  S
Ti123       O128   2.157       .  S
Ti123       O154   2.125       .  S
Ti123       O148   2.123       .  S
Ti123       O151   2.190       .  S
O124        C140   1.270       .  A
O124       Ti159   2.119       .  S
O125       Ti159   2.189       .  S
O128       Ti145   2.162   1_554  S
O129        C144   1.267       .  A
O131        C140   1.270       .  A
O131       Ti153   2.125       .  S
O132        C135   1.282   1_565  A
O134       Ti145   2.188       .  S
C135        C333   1.487       .  S
C135        O149   1.283       .  A
O136       Ti159   2.163   1_554  S
O137        C139   1.270       .  A
C139        C411   1.424       .  S
C139        O154   1.270       .  A
C140        C363   1.423       .  S
C141        C329   1.488       .  S
C141        O151   1.283       .  A
O142       Ti145   2.128       .  S
C144        C378   1.422       .  S
C144        O156   1.266       .  A
Ti145       O156   2.115       .  S
O146       Ti153   2.123       .  S
O148        C157   1.272       .  A
O149       Ti153   2.189       .  S
O150        C157   1.272       .  A
O152       Ti159   2.129       .  S
Ti153       O160   2.167       .  S
Ti153       O155   2.158       .  S
C157        C423   1.423       .  S
O161       Ti179   2.192       .  S
O161       Ti178   2.191       .  S
O162        C163   1.274       .  A
O162       Ti170   2.127       .  S
C163        C431   1.422       .  S
C163        O199   1.274       .  A
O164        C197   1.281   1_455  A
O164       Ti201   2.183       .  S
O165       Ti201   2.162   1_655  S
O165       Ti179   2.163       .  S
C166        C323   1.489       .  S
C166        O181   1.282   1_655  A
C166        O214   1.284       .  A
O167        C169   1.283       .  A
O167       Ti170   2.192       .  S
C168        C422   1.421       .  S
C168        O203   1.269       .  A
C168        O189   1.269       .  A
C169        C322   1.490       .  S
C169        O182   1.282   1_554  A
Ti170       O183   2.190       .  S
Ti170       O186   2.164       .  S
Ti170       O172   2.163       .  S
Ti170       O189   2.118       .  S
Ti171       O216   2.163   1_556  S
Ti171       O211   2.162   1_556  S
Ti171       O190   2.186       .  S
Ti171       O188   2.184       .  S
Ti171       O185   2.120       .  S
Ti171       O194   2.126       .  S
O172       Ti178   2.161   1_554  S
O173       Ti215   2.166   1_655  S
O173       Ti177   2.164       .  S
C174        C398   1.422       .  S
C174        O194   1.272       .  A
C174        O198   1.272       .  A
O175       Ti209   2.192       .  S
O175       Ti215   2.191       .  S
C176        C350   1.423       .  S
C176        O202   1.271       .  A
C176        O208   1.271       .  A
Ti177       O192   2.162       .  S
Ti177       O183   2.191       .  S
Ti177       O214   2.193       .  S
Ti177       O203   2.119       .  S
Ti177       O199   2.130       .  S
Ti178       O186   2.167   1_556  S
Ti178       O206   2.125       .  S
Ti178       O182   2.188       .  S
Ti178       O193   2.122       .  S
Ti179       O184   2.161       .  S
Ti179       O210   2.126       .  S
Ti179       O204   2.121       .  S
Ti179       O207   2.190       .  S
O180        C196   1.271       .  A
O180       Ti215   2.122       .  S
O181       Ti215   2.188       .  S
O184       Ti201   2.162   1_655  S
O185        C200   1.268       .  A
O187        C196   1.271       .  A
O187       Ti209   2.127       .  S
O188        C191   1.281   1_556  A
O190       Ti201   2.186       .  S
C191        C319   1.488       .  S
C191        O205   1.283       .  A
O192       Ti215   2.160   1_655  S
O193        C195   1.271       .  A
C195        C371   1.422       .  S
C195        O210   1.271       .  A
C196        C410   1.424       .  S
C197        C325   1.486       .  S
C197        O207   1.283       .  A
O198       Ti201   2.125       .  S
C200        C362   1.423       .  S
C200        O212   1.269       .  A
Ti201       O212   2.121       .  S
O202       Ti209   2.121       .  S
O204        C213   1.270       .  A
O205       Ti209   2.191       .  S
O206        C213   1.271       .  A
O208       Ti215   2.124       .  S
Ti209       O216   2.164       .  S
Ti209       O211   2.161       .  S
C213        C383   1.423       .  S
N217        C222   1.367       .  A
N217        C221   1.367       .  A
N217        H249   1.032       .  S
N218        C225   1.365       .  A
N218        C226   1.365       .  A
N219        C224   1.366       .  A
N219        C223   1.366       .  A
N219        H250   1.031       .  S
N220        C227   1.365       .  A
N220        C228   1.366       .  A
C221        C229   1.388       .  A
C221        C237   1.441       .  A
C222        C238   1.442       .  A
C222        C230   1.388       .  A
C223        C231   1.388       .  A
C223        C240   1.441       .  A
C224        C239   1.441       .  A
C224        C232   1.388       .  A
C225        C237   1.440       .  A
C225        C233   1.387       .  A
C226        C240   1.441       .  A
C226        C234   1.387       .  A
C227        C235   1.387       .  A
C227        C238   1.441       .  A
C228        C236   1.387       .  A
C228        C239   1.442       .  A
C229        C230   1.382       .  A
C229        H241   1.082       .  S
C230        H242   1.082       .  S
C231        C232   1.381       .  A
C231        H243   1.082       .  S
C232        H244   1.082       .  S
C233        C234   1.381       .  A
C233        H245   1.082       .  S
C234        H246   1.082       .  S
C235        C236   1.382       .  A
C235        H247   1.082       .  S
C236        H248   1.082       .  S
C237        C341   1.500       .  S
C238        C324   1.501       .  S
C239        C340   1.501       .  S
C240        C326   1.499       .  S
N251        C256   1.365       .  A
N251        C255   1.365       .  A
N251        H283   1.031       .  S
N252        C259   1.366       .  A
N252        C260   1.366       .  A
N253        C258   1.365       .  A
N253        C257   1.365       .  A
N253        H284   1.031       .  S
N254        C261   1.365       .  A
N254        C262   1.365       .  A
C255        C263   1.388       .  A
C255        C271   1.443       .  A
C256        C272   1.443       .  A
C256        C264   1.388       .  A
C257        C265   1.388       .  A
C257        C274   1.441       .  A
C258        C273   1.441       .  A
C258        C266   1.388       .  A
C259        C271   1.443       .  A
C259        C267   1.388       .  A
C260        C274   1.442       .  A
C260        C268   1.387       .  A
C261        C269   1.388       .  A
C261        C272   1.442       .  A
C262        C270   1.387       .  A
C262        C273   1.442       .  A
C263        C264   1.383       .  A
C263        H275   1.082       .  S
C264        H276   1.082       .  S
C265        C266   1.382       .  A
C265        H277   1.082       .  S
C266        H278   1.082       .  S
C267        C268   1.382       .  A
C267        H279   1.082       .  S
C268        H280   1.082       .  S
C269        C270   1.382       .  A
C269        H281   1.082       .  S
C270        H282   1.082       .  S
C271        C332   1.502       .  S
C272        C336   1.501       .  S
C273        C334   1.499       .  S
C274        C338   1.500       .  S
N285        C290   1.366       .  A
N285        C289   1.366       .  A
N285        H317   1.032       .  S
N286        C293   1.366       .  A
N286        C294   1.366       .  A
N287        C292   1.366       .  A
N287        C291   1.366       .  A
N287        H318   1.032       .  S
N288        C295   1.366       .  A
N288        C296   1.365       .  A
C289        C297   1.388       .  A
C289        C305   1.442       .  A
C290        C306   1.442       .  A
C290        C298   1.388       .  A
C291        C299   1.388       .  A
C291        C308   1.442       .  A
C292        C307   1.442       .  A
C292        C300   1.388       .  A
C293        C305   1.442       .  A
C293        C301   1.387       .  A
C294        C308   1.442       .  A
C294        C302   1.387       .  A
C295        C303   1.387       .  A
C295        C306   1.442       .  A
C296        C304   1.387       .  A
C296        C307   1.441       .  A
C297        C298   1.383       .  A
C297        H309   1.082       .  S
C298        H310   1.082       .  S
C299        C300   1.382       .  A
C299        H311   1.082       .  S
C300        H312   1.082       .  S
C301        C302   1.382       .  A
C301        H313   1.082       .  S
C302        H314   1.082       .  S
C303        C304   1.381       .  A
C303        H315   1.082       .  S
C304        H316   1.082       .  S
C305        C321   1.502       .  S
C306        C328   1.502       .  S
C307        C320   1.500       .  S
C308        C330   1.500       .  S
C319        C320   1.237       .  T
C321        C322   1.238       .  T
C323        C324   1.238       .  T
C325        C326   1.236       .  T
C327        C328   1.238       .  T
C329        C330   1.237       .  T
C331        C332   1.238       .  T
C333        C334   1.236       .  T
C335        C336   1.238       .  T
C337        C338   1.237       .  T
C339        C340   1.237       .  T
C341        C342   1.237       .  T
C343        C344   1.200       .  T
C344        C345   1.403       .  S
C345        C346   1.199       .  T
C347        C348   1.199       .  T
C348        C349   1.402       .  S
C349        C350   1.199       .  T
C351        C352   1.198       .  T
C352        C353   1.401       .  S
C353        C354   1.199       .  T
C355        C356   1.199       .  T
C356        C357   1.403       .  S
C357        C358   1.200       .  T
C359        C360   1.199       .  T
C360        C361   1.402       .  S
C361        C362   1.200       .  T
C363        C364   1.199       .  T
C364        C365   1.402       .  S
C365        C366   1.199       .  T
C367        C368   1.199       .  T
C368        C369   1.402       .  S
C369        C370   1.200       .  T
C371        C372   1.199       .  T
C372        C373   1.402       .  S
C373        C374   1.199       .  T
C375        C376   1.198       .  T
C376        C377   1.401       .  S
C377        C378   1.199       .  T
C379        C380   1.198       .  T
C380        C381   1.400       .  S
C381        C382   1.199       .  T
C383        C384   1.200       .  T
C384        C385   1.402       .  S
C385        C386   1.199       .  T
C387        C388   1.200       .  T
C388        C389   1.403       .  S
C389        C390   1.200       .  T
C391        C392   1.199       .  T
C392        C393   1.402       .  S
C393        C394   1.198       .  T
C395        C396   1.199       .  T
C396        C397   1.402       .  S
C397        C398   1.199       .  T
C399        C400   1.199       .  T
C400        C401   1.402       .  S
C401        C402   1.199       .  T
C403        C404   1.198       .  T
C404        C405   1.401       .  S
C405        C406   1.199       .  T
C407        C408   1.199       .  T
C408        C409   1.403       .  S
C409        C410   1.200       .  T
C411        C412   1.200       .  T
C412        C413   1.403       .  S
C413        C414   1.199       .  T
C415        C416   1.199       .  T
C416        C417   1.403       .  S
C417        C418   1.200       .  T
C419        C420   1.198       .  T
C420        C421   1.401       .  S
C421        C422   1.199       .  T
C423        C424   1.199       .  T
C424        C425   1.402       .  S
C425        C426   1.199       .  T
C427        C428   1.198       .  T
C428        C429   1.401       .  S
C429        C430   1.199       .  T
C431        C432   1.199       .  T
C432        C433   1.402       .  S
C433        C434   1.199       .  T
C435        C436   1.198       .  T
C436        C437   1.400       .  S
C437        C438   1.197       .  T
