geometry optimzed in LAMMPS
_audit_creation_date              2020-12-01 
_audit_creation_method            'lammps2cif' 
_symmetry_space_group_name_H-M    'P1' 
_symmetry_Int_Tables_number       1 
_symmetry_cell_setting            triclinic 
loop_ 
_symmetry_equiv_pos_as_xyz 
  x,y,z 
_cell_length_a                    38.6057202 
_cell_length_b                    39.08688876181338 
_cell_length_c                    27.234438971371773 
_cell_angle_alpha                 91.06831717465094 
_cell_angle_beta                  89.86843655550491 
_cell_angle_gamma                 121.31480599072299 
loop_ 
_atom_site_label 
_atom_site_type_symbol 
_atom_site_fract_x 
_atom_site_fract_y 
_atom_site_fract_z 
_atom_site_charge 
O1          O  0.90521810  0.47855223  0.89480903    -0.56300
C2          C  0.78293784  0.42684868  0.93900331     0.76400
O3          O  0.81841390  0.34810576  0.90692904    -0.57400
C4          C  0.93298756  0.47136947  0.90422064     0.76300
C5          C  0.86271236  0.43638728  0.04140926     0.78700
Cd6        Cd  0.85210046  0.42017313  0.93661419     1.37500
O7          O  0.81555904  0.45521689  0.92107207    -0.56300
O8          O  0.86194248  0.45980908  0.01064522    -0.55100
C9          C  0.81328026  0.35633831  0.86343668     0.78700
O10         O  0.86070247  0.40481391  0.02411671    -0.57400
O11         O  0.78338495  0.39668113  0.95423348    -0.55900
O12         O  0.92236598  0.43926813  0.92677182    -0.55900
O13         O  0.83038985  0.39318674  0.85399301    -0.55100
O14         O  0.63279667  0.43724634  0.03152070    -0.56300
C15         C  0.54048202  0.45755020  0.07652432     0.76400
O16         O  0.51965167  0.37897712  0.94942352    -0.57400
C17         C  0.63389642  0.41608670  0.99621657     0.76300
C18         C  0.53591556  0.33321709  0.08951327     0.78700
Cd19       Cd  0.55775917  0.40218198  0.02940582     1.37500
O20         O  0.57594019  0.46327543  0.07753191    -0.56300
O21         O  0.56656059  0.36769868  0.09780702    -0.55100
C22         C  0.54353784  0.41171542  0.92803086     0.78700
O23         O  0.51206538  0.33036543  0.05542166    -0.57400
O24         O  0.51315031  0.42470921  0.05720894    -0.55900
O25         O  0.59995154  0.38900945  0.97929444    -0.55900
O26         O  0.57002998  0.43971816  0.95510006    -0.55100
O27         O  0.55886850  0.37010379  0.59103143    -0.56300
C28         C  0.53961595  0.46696319  0.58051989     0.76400
O29         O  0.60707760  0.46727937  0.70249164    -0.57400
C30         C  0.58602425  0.36691436  0.61309181     0.76300
C31         C  0.65872723  0.46920040  0.54574610     0.78700
Cd32       Cd  0.59207644  0.44167614  0.61443489     1.37500
O33         O  0.53084455  0.43107779  0.57402879    -0.56300
O34         O  0.62164502  0.44877865  0.53356461    -0.55100
C35         C  0.57404331  0.43774439  0.71829335     0.78700
O36         O  0.66612477  0.48245159  0.58999298    -0.57400
O37         O  0.57392996  0.49137684  0.59985397    -0.55900
O38         O  0.61327752  0.39740286  0.63636808    -0.55900
O39         O  0.55035836  0.41274027  0.68617944    -0.55100
O40         O  0.58292114  0.20836110  0.68109134    -0.56300
C41         C  0.57323934  0.10092646  0.72598026     0.76400
O42         O  0.64172829  0.16294732  0.59196174    -0.57400
C43         C  0.60295752  0.23203293  0.64664210     0.76300
C44         C  0.69122855  0.23040237  0.73432206     0.78700
Cd45       Cd  0.62136614  0.17425915  0.67483358     1.37500
O46         O  0.56437867  0.12792968  0.72612178    -0.56300
O47         O  0.65554002  0.22271004  0.74154345    -0.55100
C48         C  0.60690979  0.15045592  0.57283727     0.78700
O49         O  0.69541527  0.20982078  0.70063975    -0.57400
O50         O  0.60570513  0.10927209  0.70412663    -0.55900
O51         O  0.63010209  0.22772678  0.62687570    -0.55900
O52         O  0.57882931  0.14399729  0.60227066    -0.55100
O53         O  0.57029342  0.11718538  0.21810930    -0.56300
C54         C  0.63830803  0.23772933  0.26510022     0.76400
O55         O  0.52295759  0.20035855  0.24606387    -0.57400
C56         C  0.53497995  0.08805457  0.22707054     0.76300
C57         C  0.57058925  0.15463701  0.36634586     0.78700
Cd58       Cd  0.56230901  0.16671653  0.26405883     1.37500
O59         O  0.63413019  0.20799163  0.24004185    -0.56300
O60         O  0.59548693  0.15810810  0.33365840    -0.55100
C61         C  0.53383281  0.20601219  0.20128266     0.78700
O62         O  0.53918454  0.15465615  0.35182672    -0.57400
O63         O  0.60813263  0.23292009  0.28925360    -0.55900
O64         O  0.51188350  0.09658096  0.25055179    -0.55900
O65         O  0.55109020  0.18790612  0.18580506    -0.55100
O66         O  0.80074902  0.39393726  0.34980760    -0.56300
C67         C  0.91351538  0.49645912  0.40002782     0.76400
O68         O  0.84696881  0.49575580  0.26678135    -0.57400
C69         C  0.77546380  0.39121668  0.31765008     0.76300
C70         C  0.78485907  0.47889804  0.41608186     0.78700
Cd71       Cd  0.83762928  0.46747244  0.35059274     1.37500
O72         O  0.88536122  0.45989210  0.40084480    -0.56300
O73         O  0.79303294  0.45167150  0.42062361    -0.55100
C74         C  0.86058579  0.47462420  0.24886498     0.78700
O75         O  0.80380720  0.50425618  0.38258263    -0.57400
O76         O  0.90514782  0.51979749  0.37831076    -0.55900
O77         O  0.77951498  0.42366641  0.30335687    -0.55900
O78         O  0.86825024  0.45516285  0.27911680    -0.55100
O79         O  0.13136292  0.57209424  0.90758037    -0.56300
C80         C  0.24057291  0.60480457  0.98199880     0.76400
O81         O  0.22010726  0.69952463  0.94161105    -0.57400
C82         C  0.10434872  0.58093549  0.91408484     0.76300
C83         C  0.15636618  0.60645110  0.06131041     0.78700
Cd84       Cd  0.18224044  0.62589293  0.96094737     1.37500
O85         O  0.21135360  0.58298497  0.95270366    -0.56300
O86         O  0.14996823  0.58080149  0.02807381    -0.55100
C87         C  0.23128209  0.69448554  0.89942516     0.78700
O88         O  0.17191703  0.64253038  0.04749431    -0.57400
O89         O  0.24335026  0.63680257  0.99771204    -0.55900
O90         O  0.11502952  0.61250686  0.93947129    -0.55900
O91         O  0.21863706  0.65863286  0.88623040    -0.55100
O92         O  0.45691995  0.56490657  0.08158505    -0.56300
C93         C  0.37874352  0.59648658  0.03020173     0.76400
O94         O  0.50733215  0.69041544  0.05751298    -0.57400
C95         C  0.49247227  0.57250112  0.07306419     0.76300
C96         C  0.45849428  0.60934109  0.92858364     0.78700
Cd97       Cd  0.46096098  0.61862026  0.03384879     1.37500
O98         O  0.38750365  0.57135059  0.04519482    -0.56300
O99         O  0.44615879  0.58022047  0.95714484    -0.55100
C100        C  0.49078950  0.68727936  0.09898412     0.78700
O101        O  0.47688454  0.64413686  0.94837089    -0.57400
O102        O  0.40761110  0.63099620  0.01980914    -0.55900
O103        O  0.51434377  0.60310028  0.04735820    -0.55900
O104        O  0.46315313  0.65242710  0.11071240    -0.55100
O105        O  0.38826832  0.81665440  0.27492760    -0.56300
C106        C  0.48812357  0.92377837  0.23778959     0.76400
O107        O  0.48429403  0.85904814  0.37175310    -0.57400
C108        C  0.38197610  0.78728543  0.30077847     0.76300
C109        C  0.49061255  0.80746691  0.22455605     0.78700
Cd110      Cd  0.46191065  0.84962711  0.28366293     1.37500
O111        O  0.45392474  0.89281688  0.22805239    -0.56300
O112        O  0.46332307  0.81398095  0.21070244    -0.55100
C113        C  0.46035177  0.87061184  0.38561499     0.78700
O114        O  0.50702940  0.82234638  0.26620219    -0.57400
O115        O  0.51178027  0.91920986  0.26548468    -0.55900
O116        O  0.41257739  0.78529430  0.31236088    -0.55900
O117        O  0.44140049  0.87587431  0.35177137    -0.55100
O118        O  0.11146282  0.58952626  0.42035657    -0.56300
C119        C  0.22960775  0.65661663  0.36251204     0.76400
O120        O  0.18766744  0.53456846  0.39756509    -0.57400
C121        C  0.08237800  0.55371572  0.41385349     0.76300
C122        C  0.14477335  0.57481389  0.27109294     0.78700
Cd123      Cd  0.16153470  0.57952760  0.37553800     1.37500
O124        O  0.20098618  0.65264408  0.38969449    -0.56300
O125        O  0.14637114  0.60137670  0.29978872    -0.55100
C126        C  0.20191411  0.55147233  0.43914103     0.78700
O127        O  0.14878557  0.54798741  0.29152334    -0.57400
O128        O  0.22664424  0.62537219  0.34376562    -0.55900
O129        O  0.09119829  0.53022445  0.39236533    -0.55900
O130        O  0.19519985  0.57888691  0.45140137    -0.55100
O131        O  0.44509216  0.64201592  0.59184409    -0.56300
C132        C  0.43551141  0.53152088  0.58289818     0.76400
O133        O  0.37467591  0.55917373  0.70686556    -0.57400
C134        C  0.43450259  0.65747677  0.62552177     0.76300
C135        C  0.32337260  0.55002725  0.56276980     0.78700
Cd136      Cd  0.39669912  0.57285599  0.61960519     1.37500
O137        O  0.44690452  0.56693799  0.57072130    -0.56300
O138        O  0.35889181  0.57167215  0.54650859    -0.55100
C139        C  0.41034797  0.57253243  0.72339957     0.78700
O140        O  0.32079904  0.53676865  0.60569856    -0.57400
O141        O  0.40402819  0.51450219  0.60925105    -0.55900
O142        O  0.40692117  0.63392226  0.65404867    -0.55900
O143        O  0.43790378  0.58204208  0.69200683    -0.55100
O144        O  0.47229836  0.90700929  0.74618192    -0.56300
C145        C  0.44158579  0.80102150  0.67135986     0.76400
O146        O  0.34395082  0.82455949  0.72624865    -0.57400
C147        C  0.46334624  0.93359217  0.73963530     0.76300
C148        C  0.42626960  0.87478662  0.59442878     0.78700
Cd149      Cd  0.41575253  0.85508607  0.69685403     1.37500
O150        O  0.46280514  0.83010005  0.70097847    -0.56300
O151        O  0.45364988  0.89335184  0.62661464    -0.55100
C152        C  0.34958380  0.80991582  0.76463651     0.78700
O153        O  0.39096975  0.85046458  0.61068873    -0.57400
O154        O  0.40861359  0.79680839  0.65637335    -0.55900
O155        O  0.43043822  0.92227410  0.71663299    -0.55900
O156        O  0.38513939  0.81688281  0.77117574    -0.55100
C157        C  0.45138353  0.70079050  0.63148300    -0.03800
C158        C  0.46483940  0.71874655  0.67848972    -0.00900
C159        C  0.46542934  0.75416853  0.69078540     0.04100
C160        C  0.45305145  0.77182624  0.65563566    -0.03800
C161        C  0.44563585  0.75701728  0.60648195    -0.00900
C162        C  0.44471101  0.72137609  0.59446187     0.04100
C163        C  0.47610362  0.69954894  0.71493245     0.38700
C164        C  0.43685305  0.77711879  0.56862190     0.38700
C165        C  0.43301651  0.70391715  0.54532518     0.37100
C166        C  0.47475859  0.76986889  0.74082029     0.37100
N167        N  0.42360467  0.68989151  0.50621972    -0.37700
N168        N  0.48200001  0.78229546  0.78078729    -0.37700
N169        N  0.42959521  0.79255310  0.53790160    -0.37100
N170        N  0.48540090  0.68448594  0.74396710    -0.37100
C171        C  0.28733063  0.54217292  0.53271815    -0.03800
C172        C  0.28608544  0.53430753  0.48156903    -0.00900
C173        C  0.25637450  0.53430529  0.45112917     0.04100
C174        C  0.22719132  0.54193830  0.47148067    -0.03800
C175        C  0.22592589  0.54561292  0.52325020    -0.00900
C176        C  0.25618822  0.54652448  0.55356818     0.04100
C177        C  0.31596058  0.52678803  0.45993205     0.38700
C178        C  0.19322000  0.54831691  0.54553890     0.38700
C179        C  0.25681415  0.55506462  0.60573009     0.37100
C180        C  0.25744629  0.52845593  0.39853094     0.37100
N181        N  0.25729312  0.56225506  0.64723221    -0.37700
N182        N  0.25843360  0.52367642  0.35660111    -0.37700
N183        N  0.16688773  0.55013557  0.56313254    -0.37100
N184        N  0.33987368  0.52084887  0.44284695    -0.37100
C185        C  0.45304196  0.87610786  0.43866245    -0.03800
C186        C  0.41450373  0.86869229  0.45418629    -0.00900
C187        C  0.40646657  0.87059808  0.50461676     0.04100
C188        C  0.43633303  0.87912245  0.54064814    -0.03800
C189        C  0.47541155  0.88829060  0.52488516    -0.00900
C190        C  0.48366298  0.88714233  0.47445686     0.04100
C191        C  0.38201727  0.85735178  0.41880655     0.38700
C192        C  0.50706244  0.89672089  0.56035283     0.38700
C193        C  0.52413166  0.89769325  0.45964030     0.37100
C194        C  0.36725612  0.86393631  0.51918966     0.37100
N195        N  0.55646948  0.90620713  0.44803841    -0.37700
N196        N  0.33601150  0.85872639  0.53069034    -0.37700
N197        N  0.53235100  0.90333237  0.58846461    -0.37100
N198        N  0.35596003  0.84832942  0.39086497    -0.37100
C199        C  0.26560715  0.69558615  0.35223487    -0.03800
C200        C  0.26818290  0.71399296  0.30726187    -0.00900
C201        C  0.30600476  0.74493641  0.29058158     0.04100
C202        C  0.34130754  0.75737842  0.31911770    -0.03800
C203        C  0.33775062  0.74115824  0.36639050    -0.00900
C204        C  0.29997808  0.71009664  0.38258601     0.04100
C205        C  0.23197088  0.70030982  0.27759426     0.38700
C206        C  0.37273981  0.75637437  0.39887181     0.38700
C207        C  0.29665187  0.69203065  0.42983064     0.37100
C208        C  0.30849166  0.76246854  0.24323267     0.37100
N209        N  0.29406196  0.67772767  0.46752848    -0.37700
N210        N  0.31028015  0.77646835  0.20553187    -0.37700
N211        N  0.40062288  0.76841272  0.42469952    -0.37100
N212        N  0.20316200  0.68975609  0.25393743    -0.37100
C213        C  0.44886281  0.60205925  0.87513043    -0.03800
C214        C  0.42718097  0.61766517  0.85243491    -0.00900
C215        C  0.41249850  0.60599752  0.80379247     0.04100
C216        C  0.42069151  0.57983690  0.77663903    -0.03800
C217        C  0.44334311  0.56513813  0.79884176    -0.00900
C218        C  0.45654583  0.57546269  0.84819140     0.04100
C219        C  0.41902004  0.64506450  0.87943259     0.38700
C220        C  0.45286472  0.53909750  0.77099835     0.38700
C221        C  0.47880647  0.55930073  0.87100824     0.37100
C222        C  0.39040812  0.62239508  0.78100670     0.37100
N223        N  0.49651464  0.54640946  0.88933990    -0.37700
N224        N  0.37295252  0.63561816  0.76281995    -0.37700
N225        N  0.46066930  0.51849386  0.74875303    -0.37100
N226        N  0.41261852  0.66708595  0.90071016    -0.37100
C227        C  0.50065213  0.78191909  0.19348958    -0.03800
C228        C  0.50319231  0.78625312  0.14188407    -0.00900
C229        C  0.50330054  0.75685413  0.11101036     0.04100
C230        C  0.50057733  0.72251356  0.13133798    -0.03800
C231        C  0.50114105  0.71968502  0.18309016    -0.00900
C232        C  0.50146663  0.74936602  0.21400612     0.04100
C233        C  0.50435715  0.82047456  0.12019301     0.38700
C234        C  0.50006449  0.68548516  0.20472390     0.38700
C235        C  0.49946951  0.74458259  0.26682938     0.37100
C236        C  0.50269432  0.76048408  0.05811401     0.37100
N237        N  0.49781533  0.74064937  0.30895055    -0.37700
N238        N  0.50202836  0.76327168  0.01593710    -0.37700
N239        N  0.49900046  0.65812697  0.22200704    -0.37100
N240        N  0.50508936  0.84762980  0.10279748    -0.37100
C241        C  0.14805615  0.59440849  0.11396053    -0.03800
C242        C  0.15728305  0.56627589  0.13240795    -0.00900
C243        C  0.15429340  0.55818375  0.18314353     0.04100
C244        C  0.14089462  0.57717044  0.21634493    -0.03800
C245        C  0.12716569  0.60165950  0.19673519    -0.00900
C246        C  0.13153158  0.61079319  0.14616640     0.04100
C247        C  0.17134886  0.54635065  0.09962745     0.38700
C248        C  0.10750807  0.61689097  0.22805021     0.38700
C249        C  0.11750600  0.63594516  0.12696022     0.37100
C250        C  0.16644981  0.53108346  0.20074719     0.37100
N251        N  0.10606556  0.65577083  0.11165106    -0.37700
N252        N  0.17614702  0.50940856  0.21439791    -0.37700
N253        N  0.09165201  0.62898106  0.25286068    -0.37100
N254        N  0.18230871  0.53016378  0.07361616    -0.37100
C255        C  0.31653316  0.78468395  0.80002478    -0.03800
C256        C  0.27805984  0.75380436  0.78285331    -0.00900
C257        C  0.24939343  0.72580237  0.81589092     0.04100
C258        C  0.25862442  0.72824812  0.86660510    -0.03800
C259        C  0.29604791  0.76064118  0.88426143    -0.00900
C260        C  0.32468415  0.78877173  0.85123650     0.04100
C261        C  0.26857759  0.74928595  0.73076431     0.38700
C262        C  0.30640440  0.76371625  0.93597847     0.38700
C263        C  0.36269713  0.82211202  0.87013710     0.37100
C264        C  0.21030549  0.69399283  0.79744268     0.37100
N265        N  0.39298223  0.84882330  0.88506532    -0.37700
N266        N  0.17911035  0.66857359  0.78284476    -0.37700
N267        N  0.31494302  0.76624321  0.97715551    -0.37100
N268        N  0.26096278  0.74564182  0.68920963    -0.37100
C269        C  0.27047719  0.59416478  0.99795092    -0.03800
C270        C  0.28776266  0.60561748  0.04581970    -0.00900
C271        C  0.32123312  0.60242613  0.05838323     0.04100
C272        C  0.33700670  0.58709315  0.02384994    -0.03800
C273        C  0.31715906  0.57136278  0.97839417    -0.00900
C274        C  0.28397006  0.57503210  0.96519019     0.04100
C275        C  0.27182486  0.62137424  0.08223863     0.38700
C276        C  0.33241141  0.55343408  0.94419121     0.38700
C277        C  0.26591745  0.56166506  0.91667972     0.37100
C278        C  0.34073855  0.61654939  0.10615252     0.37100
N279        N  0.25163359  0.55096868  0.87792110    -0.37700
N280        N  0.35634859  0.62773785  0.14418827    -0.37700
N281        N  0.34442082  0.53891599  0.91705341    -0.37100
N282        N  0.25937835  0.63401401  0.11148783    -0.37100
C283        C  0.03943236  0.53994019  0.42699174    -0.03800
C284        C  0.02544727  0.56703293  0.42938317    -0.00900
C285        C  0.98346204  0.55249690  0.42644938     0.04100
C286        C  0.95522679  0.51094573  0.41982774    -0.03800
C287        C  0.96886475  0.48395532  0.42681904    -0.00900
C288        C  0.01072364  0.49849723  0.43091719     0.04100
C289        C  0.05381491  0.60991435  0.43304429     0.38700
C290        C  0.94045770  0.44105114  0.42813660     0.38700
C291        C  0.02412410  0.47050293  0.43883693     0.37100
C292        C  0.96949796  0.58049295  0.43037800     0.37100
N293        N  0.03471636  0.44814701  0.44532962    -0.37700
N294        N  0.95836712  0.60279555  0.43391024    -0.37700
N295        N  0.91801554  0.40680229  0.42940008    -0.37100
N296        N  0.07615765  0.64416933  0.43625672    -0.37100
C297        C  0.52203048  0.04558987  0.21455958    -0.03800
C298        C  0.55112977  0.03412840  0.20772609    -0.00900
C299        C  0.53949390  0.99354676  0.21129877     0.04100
C300        C  0.49879521  0.96410481  0.22110297    -0.03800
C301        C  0.46895281  0.97482419  0.22062602    -0.00900
C302        C  0.48048437  0.01525887  0.21640535     0.04100
C303        C  0.59338002  0.06377115  0.19879270     0.38700
C304        C  0.42654155  0.94500757  0.22859705     0.38700
C305        C  0.44925950  0.02539953  0.21482150     0.37100
C306        C  0.56972593  0.98228257  0.20590363     0.37100
N307        N  0.42420832  0.03324730  0.21348101    -0.37700
N308        N  0.59393696  0.97345424  0.20160875    -0.37700
N309        N  0.39275156  0.92136999  0.23519176    -0.37100
N310        N  0.62708589  0.08721217  0.19136792    -0.37100
C311        C  0.67609825  0.27710249  0.26729635    -0.03800
C312        C  0.67330418  0.31157395  0.26471662    -0.00900
C313        C  0.70586316  0.34889627  0.28036429     0.04100
C314        C  0.74223945  0.35228439  0.29750991    -0.03800
C315        C  0.74647146  0.31838500  0.29458585    -0.00900
C316        C  0.71328897  0.28075165  0.27975587     0.04100
C317        C  0.63624965  0.30857196  0.24713861     0.38700
C318        C  0.78489880  0.32202876  0.30634783     0.38700
C319        C  0.71681663  0.24557113  0.28001034     0.37100
C320        C  0.70033877  0.38297033  0.28099107     0.37100
N321        N  0.71968555  0.21753756  0.28027384    -0.37700
N322        N  0.69540544  0.40976330  0.28137778    -0.37700
N323        N  0.81559753  0.32496051  0.31554512    -0.37100
N324        N  0.60691163  0.30667263  0.23356210    -0.37100
C325        C  0.54581009  0.06036358  0.74672164    -0.03800
C326        C  0.50363214  0.04477057  0.75161494    -0.00900
C327        C  0.47668237  0.00314570  0.75628876     0.04100
C328        C  0.49137350  0.97667084  0.75380096    -0.03800
C329        C  0.53378208  0.99296314  0.75755580    -0.00900
C330        C  0.56073939  0.03474917  0.75552015     0.04100
C331        C  0.48722997  0.07075097  0.74945598     0.38700
C332        C  0.55038053  0.96717826  0.76018012     0.38700
C333        C  0.60395050  0.05123119  0.76195820     0.37100
C334        C  0.43370336  0.98763646  0.76274771     0.37100
N335        N  0.63835485  0.06436649  0.76749880    -0.37700
N336        N  0.39949672  0.97540350  0.76817536    -0.37700
N337        N  0.56390853  0.94684762  0.76202236    -0.37100
N338        N  0.47388425  0.09124900  0.74778223    -0.37100
C339        C  0.59952589  0.14774845  0.51855355    -0.03800
C340        C  0.62797706  0.17869358  0.48820411    -0.00900
C341        C  0.61818795  0.18073358  0.43883098     0.04100
C342        C  0.57962529  0.15227765  0.41901810    -0.03800
C343        C  0.55127796  0.12113800  0.44894266    -0.00900
C344        C  0.56134033  0.11854026  0.49819516     0.04100
C345        C  0.66647496  0.21035713  0.50839251     0.38700
C346        C  0.51189088  0.09143900  0.42889680     0.38700
C347        C  0.53242604  0.08535496  0.52771153     0.37100
C348        C  0.64729349  0.21383551  0.40925437     0.37100
N349        N  0.50939529  0.05877640  0.55116156    -0.37700
N350        N  0.67062867  0.24045139  0.38611806    -0.37700
N351        N  0.48040893  0.06783505  0.41292131    -0.37100
N352        N  0.69709274  0.23578584  0.52438124    -0.37100
C353        C  0.45927831  0.51198169  0.57019157    -0.03800
C354        C  0.49970062  0.53490801  0.55257792    -0.00900
C355        C  0.52475552  0.51849893  0.55130374     0.04100
C356        C  0.51046586  0.47976779  0.56899079    -0.03800
C357        C  0.46907051  0.45524828  0.58097305    -0.00900
C358        C  0.44341697  0.47097784  0.58056104     0.04100
C359        C  0.51681423  0.57600837  0.53752360     0.38700
C360        C  0.45313759  0.41449379  0.59690410     0.38700
C361        C  0.40081551  0.44464247  0.59176695     0.37100
C362        C  0.56550975  0.54156430  0.53174357     0.37100
N363        N  0.36687745  0.42343196  0.60067069    -0.37700
N364        N  0.59788552  0.55967522  0.51585608    -0.37700
N365        N  0.44036017  0.38202972  0.60969525    -0.37100
N366        N  0.53096886  0.60886664  0.52554049    -0.37100
C367        C  0.59652742  0.26437911  0.63078052    -0.03800
C368        C  0.62994108  0.30075595  0.61399248    -0.00900
C369        C  0.62546608  0.33343560  0.60516758     0.04100
C370        C  0.58754859  0.33003068  0.61198262    -0.03800
C371        C  0.55316349  0.29259184  0.62305293    -0.00900
C372        C  0.55770057  0.25981799  0.63293878     0.04100
C373        C  0.66986314  0.30595870  0.60809635     0.38700
C374        C  0.51352183  0.28813623  0.62642883     0.38700
C375        C  0.52233104  0.22142294  0.64472584     0.37100
C376        C  0.66062813  0.37107127  0.59028433     0.37100
N377        N  0.49410954  0.19076566  0.65400561    -0.37700
N378        N  0.68911369  0.40084337  0.57904286    -0.37700
N379        N  0.48181169  0.28441420  0.62900860    -0.37100
N380        N  0.70177027  0.31042534  0.60349375    -0.37100
C381        C  0.69092741  0.47387247  0.51036778    -0.03800
C382        C  0.68336264  0.44082921  0.47968189    -0.00900
C383        C  0.71417603  0.44283689  0.44958080     0.04100
C384        C  0.75254793  0.47854557  0.44710804    -0.03800
C385        C  0.75982180  0.51210704  0.47602579    -0.00900
C386        C  0.72948076  0.50957301  0.50816859     0.04100
C387        C  0.64433068  0.40352426  0.48041298     0.38700
C388        C  0.79920819  0.54866270  0.47441961     0.38700
C389        C  0.73786829  0.54397590  0.53839350     0.37100
C390        C  0.70628062  0.40740542  0.42163216     0.37100
N391        N  0.74463338  0.57148395  0.56254089    -0.37700
N392        N  0.69991173  0.37883774  0.40019167    -0.37700
N393        N  0.83072460  0.57779216  0.47310999    -0.37100
N394        N  0.61334792  0.37371475  0.48079556    -0.37100
C395        C  0.50678338  0.54544586  0.08937115    -0.03800
C396        C  0.47855041  0.50518720  0.10194910    -0.00900
C397        C  0.49095164  0.47711269  0.10414838     0.04100
C398        C  0.53126338  0.48860809  0.09291187    -0.03800
C399        C  0.56075936  0.52993809  0.08988383    -0.00900
C400        C  0.54853280  0.55827460  0.08827905     0.04100
C401        C  0.43627285  0.49159469  0.11083334     0.38700
C402        C  0.60355118  0.54356962  0.08675466     0.38700
C403        C  0.57914076  0.60055423  0.08553229     0.37100
C404        C  0.46194507  0.43613599  0.11763010     0.37100
N405        N  0.60372673  0.63423449  0.08368743    -0.37700
N406        N  0.43886616  0.40353673  0.12859522    -0.37700
N407        N  0.63775297  0.55465865  0.08470111    -0.37100
N408        N  0.40251969  0.48049604  0.11810111    -0.37100
C409        C  0.56325510  0.43104163  0.77164941    -0.03800
C410        C  0.56940683  0.46269600  0.80353031    -0.00900
C411        C  0.55961045  0.45568936  0.85397149     0.04100
C412        C  0.54395894  0.41695312  0.87351280    -0.03800
C413        C  0.53532307  0.38482144  0.84088628    -0.00900
C414        C  0.54533231  0.39189166  0.79062334     0.04100
C415        C  0.58525459  0.50249743  0.78448121     0.38700
C416        C  0.51799201  0.34449116  0.85903720     0.38700
C417        C  0.53943864  0.35884124  0.75917939     0.37100
C418        C  0.56530537  0.48853120  0.88569010     0.37100
N419        N  0.53486598  0.33240108  0.73442467    -0.37700
N420        N  0.56979073  0.51462956  0.91109795    -0.37700
N421        N  0.50404641  0.31223679  0.87320604    -0.37100
N422        N  0.59785029  0.53434578  0.76958224    -0.37100
C423        C  0.53171533  0.29785089  0.11521294    -0.03800
C424        C  0.56224028  0.28866061  0.10836693    -0.00900
C425        C  0.56174216  0.25771034  0.13473221     0.04100
C426        C  0.53059862  0.23525621  0.16920843    -0.03800
C427        C  0.49935287  0.24387650  0.17512742    -0.00900
C428        C  0.49991232  0.27499549  0.14817592     0.06500
C429        C  0.59515931  0.31190141  0.07456940     0.38700
C430        C  0.46644099  0.22065598  0.20867453     0.38700
C431        C  0.46883208  0.28470272  0.15607524     0.37100
C432        C  0.59536225  0.25132041  0.12818629     0.37100
N433        N  0.44405183  0.29248142  0.16267176    -0.37700
N434        N  0.62237140  0.24662332  0.12277595    -0.37700
N435        N  0.44012865  0.20203201  0.23540788    -0.37100
N436        N  0.62162224  0.33050459  0.04804523    -0.37100
C437        C  0.97636075  0.50003241  0.89240264    -0.03800
C438        C  0.00312678  0.48598737  0.88470864    -0.00900
C439        C  0.04546872  0.51290105  0.88664335     0.04100
C440        C  0.06143846  0.55426865  0.89660642    -0.03800
C441        C  0.03458488  0.56879420  0.89574794    -0.00900
C442        C  0.99226709  0.54183570  0.89380386     0.04100
C443        C  0.98713185  0.44369230  0.87477230     0.38700
C444        C  0.05017815  0.61153764  0.89728396     0.38700
C445        C  0.96544005  0.55750634  0.89557845     0.37100
C446        C  0.07201649  0.49725180  0.87981374     0.37100
N447        N  0.94410665  0.57006707  0.89669127    -0.37700
N448        N  0.09290466  0.48447766  0.87397175    -0.37700
N449        N  0.06235328  0.64556492  0.89841465    -0.37100
N450        N  0.97436566  0.41001222  0.86667302    -0.37100
C451        C  0.86289278  0.44521392  0.09498069    -0.03800
C452        C  0.89782183  0.45883411  0.12461995    -0.00900
C453        C  0.89786373  0.46992268  0.17458844     0.04100
C454        C  0.86348514  0.46890980  0.19484046    -0.03800
C455        C  0.82909557  0.45643160  0.16448228    -0.00900
C456        C  0.82863596  0.44415910  0.11526075     0.04100
C457        C  0.93415492  0.46283795  0.10328421     0.38700
C458        C  0.79325816  0.45465060  0.18418460     0.38700
C459        C  0.79215047  0.42930750  0.08568049     0.37100
C460        C  0.93371388  0.48342683  0.20486137     0.37100
N461        N  0.76281665  0.41716731  0.06253354    -0.37700
N462        N  0.96230231  0.49428753  0.22909707    -0.37700
N463        N  0.76461862  0.45336008  0.19945429    -0.37100
N464        N  0.96335391  0.46645480  0.08627518    -0.37100
C465        C  0.72584491  0.26339688  0.76317646    -0.03800
C466        C  0.72953098  0.30130957  0.76681580    -0.00900
C467        C  0.75977158  0.33215004  0.79689472     0.04100
C468        C  0.78576121  0.32509234  0.82614605    -0.03800
C469        C  0.78296253  0.28758665  0.82132897    -0.00900
C470        C  0.75338222  0.25702765  0.78969315     0.04100
C471        C  0.70122871  0.30857862  0.74081352     0.38700
C472        C  0.81104379  0.28065011  0.84813044     0.38700
C473        C  0.74968450  0.21821027  0.78677119     0.37100
C474        C  0.76228518  0.37058428  0.79931455     0.37100
N475        N  0.74651562  0.18710715  0.78458262    -0.37700
N476        N  0.76396525  0.40102772  0.80119092    -0.37700
N477        N  0.83363868  0.27520206  0.86931849    -0.37100
N478        N  0.67850057  0.31474618  0.72126555    -0.37100
C479        C  0.67241658  0.42169482  0.97558396    -0.03800
C480        C  0.67164918  0.39051774  0.94682492    -0.00900
C481        C  0.70801663  0.39352124  0.93224435     0.04100
C482        C  0.74558007  0.42817561  0.94406652    -0.03800
C483        C  0.74657882  0.46098508  0.96799372    -0.00900
C484        C  0.71023601  0.45759388  0.98452640     0.04100
C485        C  0.63383483  0.35403079  0.93353027     0.38700
C486        C  0.78519955  0.49726016  0.97874813     0.38700
C487        C  0.71240143  0.49104108  0.01147555     0.37100
C488        C  0.70649598  0.35973331  0.90677728     0.37100
N489        N  0.71448242  0.51777527  0.03325124    -0.37700
N490        N  0.70441934  0.33212323  0.88739883    -0.37700
N491        N  0.81598637  0.52619388  0.98725776    -0.37100
N492        N  0.60394713  0.32483766  0.92273945    -0.37100
loop_ 
_geom_bond_atom_site_label_1 
_geom_bond_atom_site_label_2 
_geom_bond_distance 
_geom_bond_site_symmetry_2 
_ccdc_geom_bond_type 
O1            C4   1.269       .  A
O1           Cd6   2.435       .  S
C2           O11   1.266       .  A
C2            O7   1.273       .  A
C2          C482   1.476       .  S
O3            C9   1.276       .  A
O3           Cd6   2.528       .  S
C4           O12   1.270       .  A
C4          C437   1.491       .  S
C5           O10   1.277       .  A
C5            O8   1.264       .  A
C5          C451   1.492       .  S
Cd6          O13   2.425       .  S
Cd6          O12   2.426       .  S
Cd6          O11   2.364       .  S
Cd6           O7   2.465       .  S
Cd6          O10   2.533   1_556  S
Cd6           O8   2.426   1_556  S
C9           O13   1.265       .  A
C9          C468   1.504       .  S
O14          C17   1.272   1_554  A
O14         Cd19   2.479       .  S
C15          O24   1.268       .  A
C15          O20   1.267       .  A
C15         C398   1.493       .  S
O16          C22   1.275       .  A
O16         Cd19   2.507   1_556  S
C17          O25   1.262       .  A
C17         C479   1.496       .  S
C18          O23   1.271       .  A
C18          O21   1.265       .  A
C18         C423   1.493       .  S
Cd19         O26   2.420   1_554  S
Cd19         O25   2.370   1_554  S
Cd19         O24   2.421       .  S
Cd19         O20   2.461       .  S
Cd19         O23   2.533       .  S
Cd19         O21   2.444       .  S
C22          O26   1.264       .  A
C22         C412   1.501       .  S
O27          C30   1.272       .  A
O27         Cd32   2.467       .  S
C28          O37   1.270       .  A
C28          O33   1.269       .  A
C28         C356   1.486       .  S
O29          C35   1.277       .  A
O29         Cd32   2.530       .  S
C30          O38   1.265       .  A
C30         C370   1.473       .  S
C31          O36   1.275       .  A
C31          O34   1.265       .  A
C31         C381   1.507       .  S
Cd32         O39   2.422       .  S
Cd32         O38   2.353       .  S
Cd32         O37   2.422       .  S
Cd32         O33   2.439       .  S
Cd32         O36   2.540       .  S
Cd32         O34   2.432       .  S
C35          O39   1.265       .  A
C35         C409   1.501       .  S
O40          C43   1.273       .  A
O40         Cd45   2.461       .  S
C41          O50   1.269       .  A
C41          O46   1.267       .  A
C41         C325   1.497       .  S
O42          C48   1.276       .  A
O42         Cd45   2.495       .  S
C43          O51   1.262       .  A
C43         C367   1.481       .  S
C44          O49   1.273       .  A
C44          O47   1.264       .  A
C44         C465   1.497       .  S
Cd45         O52   2.431       .  S
Cd45         O51   2.357       .  S
Cd45         O50   2.435       .  S
Cd45         O46   2.451       .  S
Cd45         O49   2.538       .  S
Cd45         O47   2.432       .  S
C48          O52   1.265       .  A
C48         C339   1.498       .  S
O53          C56   1.269       .  A
O53         Cd58   2.437       .  S
C54          O63   1.264       .  A
C54          O59   1.272       .  A
C54         C311   1.471       .  S
O55          C61   1.274       .  A
O55         Cd58   2.526       .  S
C56          O64   1.270       .  A
C56         C297   1.496       .  S
C57          O62   1.276       .  A
C57          O60   1.265       .  A
C57         C342   1.493       .  S
Cd58         O65   2.420       .  S
Cd58         O64   2.420       .  S
Cd58         O63   2.340       .  S
Cd58         O59   2.470       .  S
Cd58         O62   2.515       .  S
Cd58         O60   2.414       .  S
C61          O65   1.265       .  A
C61         C426   1.507       .  S
O66          C69   1.274       .  A
O66         Cd71   2.456       .  S
C67          O76   1.270       .  A
C67          O72   1.269       .  A
C67         C286   1.500       .  S
O68          C74   1.277       .  A
O68         Cd71   2.498       .  S
C69          O77   1.264       .  A
C69         C314   1.485       .  S
C70          O75   1.275       .  A
C70          O73   1.266       .  A
C70         C384   1.499       .  S
Cd71         O78   2.442       .  S
Cd71         O77   2.358       .  S
Cd71         O76   2.441       .  S
Cd71         O72   2.439       .  S
Cd71         O75   2.536       .  S
Cd71         O73   2.430       .  S
C74          O78   1.266       .  A
C74         C454   1.497       .  S
O79          C82   1.269       .  A
O79         Cd84   2.449       .  S
C80          O89   1.265       .  A
C80          O85   1.271       .  A
C80         C269   1.484       .  S
O81          C87   1.274       .  A
O81         Cd84   2.525       .  S
C82          O90   1.269       .  A
C82         C440   1.499       .  S
C83          O88   1.276       .  A
C83          O86   1.263       .  A
C83         C241   1.499       .  S
Cd84         O91   2.443       .  S
Cd84         O90   2.436       .  S
Cd84         O89   2.387       .  S
Cd84         O85   2.464       .  S
Cd84         O88   2.519   1_556  S
Cd84         O86   2.414   1_556  S
C87          O91   1.266       .  A
C87         C258   1.499       .  S
O92          C95   1.266       .  A
O92         Cd97   2.425       .  S
C93         O102   1.262       .  A
C93          O98   1.268       .  A
C93         C272   1.465       .  S
O94         C100   1.272       .  A
O94         Cd97   2.492       .  S
C95         O103   1.270       .  A
C95         C395   1.499       .  S
C96         O101   1.271       .  A
C96          O99   1.263       .  A
C96         C213   1.488       .  S
Cd97        O104   2.432       .  S
Cd97        O103   2.462       .  S
Cd97        O102   2.381       .  S
Cd97         O98   2.474       .  S
Cd97        O101   2.497   1_554  S
Cd97         O99   2.437   1_554  S
C100        O104   1.265       .  A
C100        C230   1.494       .  S
O105        C108   1.270       .  A
O105       Cd110   2.446       .  S
C106        O115   1.270       .  A
C106        O111   1.268       .  A
C106        C300   1.487       .  S
O107        C113   1.276       .  A
O107       Cd110   2.507       .  S
C108        O116   1.265       .  A
C108        C202   1.480       .  S
C109        O114   1.274       .  A
C109        O112   1.265       .  A
C109        C227   1.494       .  S
Cd110       O117   2.426       .  S
Cd110       O116   2.377       .  S
Cd110       O115   2.440       .  S
Cd110       O111   2.424       .  S
Cd110       O114   2.511       .  S
Cd110       O112   2.422       .  S
C113        O117   1.262       .  A
C113        C185   1.504       .  S
O118        C121   1.269       .  A
O118       Cd123   2.477       .  S
C119        O128   1.264       .  A
C119        O124   1.271       .  A
C119        C199   1.464       .  S
O120        C126   1.272       .  A
O120       Cd123   2.520       .  S
C121        O129   1.267       .  A
C121        C283   1.498       .  S
C122        O127   1.274       .  A
C122        O125   1.263       .  A
C122        C244   1.508       .  S
Cd123       O130   2.451       .  S
Cd123       O129   2.426       .  S
Cd123       O128   2.376       .  S
Cd123       O124   2.464       .  S
Cd123       O127   2.503       .  S
Cd123       O125   2.433       .  S
C126        O130   1.266       .  A
C126        C174   1.504       .  S
O131        C134   1.268       .  A
O131       Cd136   2.488       .  S
C132        O141   1.268       .  A
C132        O137   1.266       .  A
C132        C353   1.504       .  S
O133        C139   1.272       .  A
O133       Cd136   2.494       .  S
C134        O142   1.261       .  A
C134        C157   1.470       .  S
C135        O140   1.270       .  A
C135        O138   1.264       .  A
C135        C171   1.501       .  S
Cd136       O143   2.438       .  S
Cd136       O142   2.382       .  S
Cd136       O141   2.451       .  S
Cd136       O137   2.455       .  S
Cd136       O140   2.531       .  S
Cd136       O138   2.457       .  S
C139        O143   1.264       .  A
C139        C216   1.487       .  S
O144        C147   1.269       .  A
O144       Cd149   2.449       .  S
C145        O154   1.263       .  A
C145        O150   1.271       .  A
C145        C160   1.479       .  S
O146        C152   1.273       .  A
O146       Cd149   2.517       .  S
C147        O155   1.269       .  A
C147        C328   1.496       .  S
C148        O153   1.274       .  A
C148        O151   1.263       .  A
C148        C188   1.504       .  S
Cd149       O156   2.448       .  S
Cd149       O155   2.431       .  S
Cd149       O154   2.395       .  S
Cd149       O150   2.473       .  S
Cd149       O153   2.504       .  S
Cd149       O151   2.420       .  S
C152        O156   1.265       .  A
C152        C255   1.500       .  S
C157        C158   1.411       .  A
C157        C162   1.406       .  A
C158        C159   1.407       .  A
C158        C163   1.451       .  S
C159        C160   1.411       .  A
C159        C166   1.451       .  S
C160        C161   1.418       .  A
C161        C162   1.407       .  A
C161        C164   1.451       .  S
C162        C165   1.452       .  S
C163        N170   1.157       .  T
C164        N169   1.157       .  T
C165        N167   1.157       .  T
C166        N168   1.157       .  T
C171        C172   1.416       .  A
C171        C176   1.415       .  A
C172        C173   1.417       .  A
C172        C177   1.451       .  S
C173        C174   1.416       .  A
C173        C180   1.450       .  S
C174        C175   1.418       .  A
C175        C176   1.417       .  A
C175        C178   1.451       .  S
C176        C179   1.451       .  S
C177        N184   1.157       .  T
C178        N183   1.157       .  T
C179        N181   1.157       .  T
C180        N182   1.157       .  T
C185        C186   1.425       .  A
C185        C190   1.412       .  A
C186        C187   1.416       .  A
C186        C191   1.452       .  S
C187        C188   1.413       .  A
C187        C194   1.452       .  S
C188        C189   1.425       .  A
C189        C190   1.414       .  A
C189        C192   1.452       .  S
C190        C193   1.452       .  S
C191        N198   1.158       .  T
C192        N197   1.158       .  T
C193        N195   1.157       .  T
C194        N196   1.158       .  T
C199        C200   1.409       .  A
C199        C204   1.404       .  A
C200        C201   1.408       .  A
C200        C205   1.451       .  S
C201        C202   1.414       .  A
C201        C208   1.451       .  S
C202        C203   1.420       .  A
C203        C204   1.404       .  A
C203        C206   1.453       .  S
C204        C207   1.452       .  S
C205        N212   1.157       .  T
C206        N211   1.157       .  T
C207        N209   1.157       .  T
C208        N210   1.157       .  T
C213        C214   1.415       .  A
C213        C218   1.414       .  A
C214        C215   1.413       .  A
C214        C219   1.452       .  S
C215        C216   1.414       .  A
C215        C222   1.452       .  S
C216        C217   1.414       .  A
C217        C218   1.414       .  A
C217        C220   1.451       .  S
C218        C221   1.451       .  S
C219        N226   1.157       .  T
C220        N225   1.157       .  T
C221        N223   1.157       .  T
C222        N224   1.157       .  T
C227        C228   1.416       .  A
C227        C232   1.414       .  A
C228        C229   1.413       .  A
C228        C233   1.452       .  S
C229        C230   1.414       .  A
C229        C236   1.452       .  S
C230        C231   1.417       .  A
C231        C232   1.415       .  A
C231        C234   1.452       .  S
C232        C235   1.451       .  S
C233        N240   1.157       .  T
C234        N239   1.157       .  T
C235        N237   1.157       .  T
C236        N238   1.157       .  T
C241        C242   1.420       .  A
C241        C246   1.410       .  A
C242        C243   1.414       .  A
C242        C247   1.453       .  S
C243        C244   1.417       .  A
C243        C250   1.452       .  S
C244        C245   1.425       .  A
C245        C246   1.417       .  A
C245        C248   1.451       .  S
C246        C249   1.452       .  S
C247        N254   1.158       .  T
C248        N253   1.158       .  T
C249        N251   1.157       .  T
C250        N252   1.157       .  T
C255        C256   1.414       .  A
C255        C260   1.418       .  A
C256        C257   1.416       .  A
C256        C261   1.450       .  S
C257        C258   1.416       .  A
C257        C264   1.451       .  S
C258        C259   1.414       .  A
C259        C260   1.417       .  A
C259        C262   1.451       .  S
C260        C263   1.452       .  S
C261        N268   1.157       .  T
C262        N267   1.157       .  T
C263        N265   1.157       .  T
C264        N266   1.157       .  T
C269        C270   1.420   1_556  A
C269        C274   1.416       .  A
C270        C271   1.405       .  A
C270        C275   1.453       .  S
C271        C272   1.404       .  A
C271        C278   1.453       .  S
C272        C273   1.409   1_554  A
C273        C274   1.409       .  A
C273        C276   1.452       .  S
C274        C277   1.451       .  S
C275        N282   1.158       .  T
C276        N281   1.157       .  T
C277        N279   1.157       .  T
C278        N280   1.157       .  T
C283        C284   1.417       .  A
C283        C288   1.415       .  A
C284        C285   1.414   1_455  A
C284        C289   1.451       .  S
C285        C286   1.417       .  A
C285        C292   1.452       .  S
C286        C287   1.418       .  A
C287        C288   1.411   1_655  A
C287        C290   1.451       .  S
C288        C291   1.452       .  S
C289        N296   1.158       .  T
C290        N295   1.158       .  T
C291        N293   1.157       .  T
C292        N294   1.158       .  T
C297        C298   1.420       .  A
C297        C302   1.416       .  A
C298        C299   1.411   1_545  A
C298        C303   1.451       .  S
C299        C300   1.412       .  A
C299        C306   1.452       .  S
C300        C301   1.416       .  A
C301        C302   1.409   1_565  A
C301        C304   1.453       .  S
C302        C305   1.452       .  S
C303        N310   1.158       .  T
C304        N309   1.158       .  T
C305        N307   1.157       .  T
C306        N308   1.157       .  T
C311        C312   1.409       .  A
C311        C316   1.409       .  A
C312        C313   1.401       .  A
C312        C317   1.455       .  S
C313        C314   1.420       .  A
C313        C320   1.454       .  S
C314        C315   1.418       .  A
C315        C316   1.410       .  A
C315        C318   1.451       .  S
C316        C319   1.451       .  S
C317        N324   1.157       .  T
C318        N323   1.157       .  T
C319        N321   1.157       .  T
C320        N322   1.158       .  T
C325        C326   1.418       .  A
C325        C330   1.415       .  A
C326        C327   1.412       .  A
C326        C331   1.451       .  S
C327        C328   1.416   1_545  A
C327        C334   1.452   1_545  S
C328        C329   1.418       .  A
C329        C330   1.411   1_565  A
C329        C332   1.451       .  S
C330        C333   1.452       .  S
C331        N338   1.158       .  T
C332        N337   1.157       .  T
C333        N335   1.157       .  T
C334        N336   1.157       .  T
C339        C340   1.416       .  A
C339        C344   1.419       .  A
C340        C341   1.412       .  A
C340        C345   1.452       .  S
C341        C342   1.416       .  A
C341        C348   1.452       .  S
C342        C343   1.411       .  A
C343        C344   1.417       .  A
C343        C346   1.450       .  S
C344        C347   1.451       .  S
C345        N352   1.157       .  T
C346        N351   1.157       .  T
C347        N349   1.157       .  T
C348        N350   1.157       .  T
C353        C354   1.424       .  A
C353        C358   1.421       .  A
C354        C355   1.411       .  A
C354        C359   1.451       .  S
C355        C356   1.409       .  A
C355        C362   1.453       .  S
C356        C357   1.413       .  A
C357        C358   1.411       .  A
C357        C360   1.453       .  S
C358        C361   1.452       .  S
C359        N366   1.158       .  T
C360        N365   1.158       .  T
C361        N363   1.157       .  T
C362        N364   1.157       .  T
C367        C368   1.418       .  A
C367        C372   1.416       .  A
C368        C369   1.400       .  A
C368        C373   1.455       .  S
C369        C370   1.411       .  A
C369        C376   1.454       .  S
C370        C371   1.411       .  A
C371        C372   1.411       .  A
C371        C374   1.450       .  S
C372        C375   1.451       .  S
C373        N380   1.158       .  T
C374        N379   1.157       .  T
C375        N377   1.157       .  T
C376        N378   1.157       .  T
C381        C382   1.421       .  A
C381        C386   1.418       .  A
C382        C383   1.412       .  A
C382        C387   1.454       .  S
C383        C384   1.415       .  A
C383        C390   1.454       .  S
C384        C385   1.414       .  A
C385        C386   1.423       .  A
C385        C388   1.449       .  S
C386        C389   1.448       .  S
C387        N394   1.158       .  T
C388        N393   1.157       .  T
C389        N391   1.157       .  T
C390        N392   1.157       .  T
C395        C396   1.420       .  A
C395        C400   1.418       .  A
C396        C397   1.409       .  A
C396        C401   1.451       .  S
C397        C398   1.412       .  A
C397        C404   1.453       .  S
C398        C399   1.416       .  A
C399        C400   1.413       .  A
C399        C402   1.451       .  S
C400        C403   1.452       .  S
C401        N408   1.157       .  T
C402        N407   1.158       .  T
C403        N405   1.158       .  T
C404        N406   1.157       .  T
C409        C410   1.413       .  A
C409        C414   1.419       .  A
C410        C411   1.417       .  A
C410        C415   1.450       .  S
C411        C412   1.421       .  A
C411        C418   1.452       .  S
C412        C413   1.415       .  A
C413        C414   1.414       .  A
C413        C416   1.452       .  S
C414        C417   1.452       .  S
C415        N422   1.157       .  T
C416        N421   1.158       .  T
C417        N419   1.157       .  T
C418        N420   1.158       .  T
C423        C424   1.410       .  A
C423        C428   1.413       .  A
C424        C425   1.410       .  A
C424        C429   1.454       .  S
C425        C426   1.423       .  A
C425        C432   1.454       .  S
C426        C427   1.419       .  A
C427        C428   1.423       .  A
C427        C430   1.449       .  S
C428        C431   1.449       .  S
C429        N436   1.157       .  T
C430        N435   1.157       .  T
C431        N433   1.157       .  T
C432        N434   1.158       .  T
C437        C438   1.413   1_655  A
C437        C442   1.415       .  A
C438        C439   1.411       .  A
C438        C443   1.453   1_455  S
C439        C440   1.420       .  A
C439        C446   1.451       .  S
C440        C441   1.418       .  A
C441        C442   1.411   1_455  A
C441        C444   1.452       .  S
C442        C445   1.452       .  S
C443        N450   1.158       .  T
C444        N449   1.157       .  T
C445        N447   1.158       .  T
C446        N448   1.158       .  T
C451        C452   1.413       .  A
C451        C456   1.413       .  A
C452        C453   1.420       .  A
C452        C457   1.450       .  S
C453        C454   1.418       .  A
C453        C460   1.450       .  S
C454        C455   1.415       .  A
C455        C456   1.412       .  A
C455        C458   1.451       .  S
C456        C459   1.452       .  S
C457        N464   1.157       .  T
C458        N463   1.157       .  T
C459        N461   1.157       .  T
C460        N462   1.158       .  T
C465        C466   1.415       .  A
C465        C470   1.414       .  A
C466        C467   1.411       .  A
C466        C471   1.453       .  S
C467        C468   1.420       .  A
C467        C474   1.454       .  S
C468        C469   1.416       .  A
C469        C470   1.422       .  A
C469        C472   1.448       .  S
C470        C473   1.449       .  S
C471        N478   1.157       .  T
C472        N477   1.157       .  T
C473        N475   1.157       .  T
C474        N476   1.158       .  T
C479        C480   1.423       .  A
C479        C484   1.421       .  A
C480        C481   1.404       .  A
C480        C485   1.454       .  S
C481        C482   1.409       .  A
C481        C488   1.454       .  S
C482        C483   1.410       .  A
C483        C484   1.412       .  A
C483        C486   1.452       .  S
C484        C487   1.451   1_556  S
C485        N492   1.158       .  T
C486        N491   1.157       .  T
C487        N489   1.158       .  T
C488        N490   1.157       .  T
