geometry optimzed in LAMMPS
_audit_creation_date              2020-12-01 
_audit_creation_method            'lammps2cif' 
_symmetry_space_group_name_H-M    'P1' 
_symmetry_Int_Tables_number       1 
_symmetry_cell_setting            triclinic 
loop_ 
_symmetry_equiv_pos_as_xyz 
  x,y,z 
_cell_length_a                    56.12835121 
_cell_length_b                    56.08754140620337 
_cell_length_c                    56.10591676747177 
_cell_angle_alpha                 89.90328355484706 
_cell_angle_beta                  90.00671870756668 
_cell_angle_gamma                 89.96262015112744 
loop_ 
_atom_site_label 
_atom_site_type_symbol 
_atom_site_fract_x 
_atom_site_fract_y 
_atom_site_fract_z 
_atom_site_charge 
O1          O  0.60779380  0.25837809  0.85799289    -0.72800
O2          O  0.61305978  0.28369906  0.92440858    -0.73800
O3          O  0.57665480  0.28278226  0.88950371    -0.62400
O4          O  0.64377413  0.25938655  0.89307559    -0.70800
O5          O  0.65670525  0.29402688  0.87920646    -0.70300
O6          O  0.58939492  0.31718911  0.87485722    -0.61600
O7          O  0.62538701  0.31850552  0.91017923    -0.74100
O8          O  0.62089536  0.29266941  0.84368547    -0.72900
Cu9        Cu  0.60981034  0.26989777  0.89173487     1.04600
Cu10       Cu  0.62347956  0.30683513  0.87647710     1.04300
C11         C  0.61395987  0.27128223  0.84022982     0.93400
C12         C  0.62051965  0.30491784  0.92780580     0.92600
C13         C  0.57235528  0.30373478  0.88164988     0.84700
C14         C  0.66091277  0.27294021  0.88670403     0.91000
O15         O  0.29920981  0.56118531  0.88720780    -0.72800
O16         O  0.26740037  0.62467687  0.89494053    -0.73800
O17         O  0.26874755  0.58963358  0.85851604    -0.62400
O18         O  0.29772358  0.59636127  0.92353572    -0.70800
O19         O  0.32965841  0.61316875  0.90747717    -0.70300
O20         O  0.29989305  0.60765374  0.84238371    -0.61600
O21         O  0.29911421  0.64212443  0.87943508    -0.74100
O22         O  0.33039630  0.57862191  0.87019950    -0.72900
Cu23       Cu  0.28221653  0.59230630  0.89160406     1.04600
Cu24       Cu  0.31589649  0.61099237  0.87435057     1.04300
C25         C  0.31961564  0.55985222  0.87722693     0.93400
C26         C  0.27826017  0.64359130  0.88849615     0.92600
C27         C  0.27960568  0.59753359  0.84012407     0.84700
C28         C  0.31818905  0.60604878  0.92583902     0.91000
O29         O  0.37245643  0.32633423  0.78208390    -0.72800
O30         O  0.36967046  0.39077609  0.81157532    -0.73800
O31         O  0.40407414  0.35418997  0.80973871    -0.62400
O32         O  0.33771736  0.36296657  0.78455986    -0.70800
O33         O  0.32314910  0.34700354  0.81761601    -0.70300
O34         O  0.38934746  0.33842032  0.84278278    -0.61600
O35         O  0.35455884  0.37512292  0.84468447    -0.74100
O36         O  0.35764642  0.31028715  0.81507907    -0.72900
Cu37       Cu  0.37153571  0.35908473  0.79585386     1.04600
Cu38       Cu  0.35573895  0.34211809  0.83123379     1.04300
C39         C  0.36520950  0.30816785  0.79370895     0.93400
C40         C  0.36112579  0.39320238  0.83247927     0.92600
C41         C  0.40724689  0.34491098  0.83028825     0.84700
C42         C  0.31987453  0.35663818  0.79723197     0.91000
O43         O  0.63146222  0.58373264  0.16981505    -0.72800
O44         O  0.62257256  0.64770378  0.19998562    -0.73800
O45         O  0.65979755  0.61401785  0.19798261    -0.62400
O46         O  0.59393531  0.61757673  0.17163926    -0.70800
O47         O  0.57957420  0.60092589  0.20434220    -0.70300
O48         O  0.64593463  0.59603806  0.23040746    -0.61600
O49         O  0.60918584  0.63030353  0.23291471    -0.74100
O50         O  0.61682161  0.56660132  0.20229341    -0.72900
Cu51       Cu  0.62733920  0.61633301  0.18367692     1.04600
Cu52       Cu  0.61229242  0.59783057  0.21858809     1.04300
C53         C  0.62606445  0.56499380  0.18156056     0.93400
C54         C  0.61507745  0.64905676  0.22143698     0.92600
C55         C  0.66328885  0.60455555  0.21837755     0.84700
C56         C  0.57617460  0.61023918  0.18384334     0.91000
O57         O  0.66861052  0.38540698  0.14266179    -0.72800
O58         O  0.69043185  0.31799310  0.13564042    -0.73800
O59         O  0.69558367  0.35320099  0.17075696    -0.62400
O60         O  0.66320162  0.35003693  0.10753161    -0.70800
O61         O  0.69599991  0.36285136  0.08980495    -0.70300
O62         O  0.72909449  0.36483612  0.15317967    -0.61600
O63         O  0.72323984  0.33053125  0.11757198    -0.74100
O64         O  0.70200638  0.39790249  0.12560896    -0.72900
Cu65       Cu  0.67826506  0.35127292  0.13970785     1.04600
Cu66       Cu  0.71369208  0.36455359  0.12086634     1.04300
C67         C  0.68199906  0.40234602  0.13545138     0.93400
C68         C  0.71065471  0.31364656  0.12618368     0.92600
C69         C  0.71760351  0.35874730  0.17187414     0.84700
C70         C  0.67438160  0.35587369  0.08858036     0.91000
O71         O  0.36039710  0.65177912  0.10610806    -0.72800
O72         O  0.36693747  0.68183292  0.17082743    -0.73800
O73         O  0.33089240  0.68048760  0.13534100    -0.62400
O74         O  0.39594351  0.65267044  0.14179177    -0.70800
O75         O  0.41118333  0.68564824  0.12614233    -0.70300
O76         O  0.34545685  0.71283700  0.11788209    -0.61600
O77         O  0.38071852  0.71493562  0.15399328    -0.74100
O78         O  0.37606446  0.68407296  0.08986257    -0.72900
Cu79       Cu  0.36298604  0.66556801  0.13907050     1.04600
Cu80       Cu  0.37892404  0.70048457  0.12135324     1.04300
C81         C  0.36733533  0.66321651  0.08762052     0.93400
C82         C  0.37480283  0.70315313  0.17254767     0.92600
C83         C  0.32773990  0.70091846  0.12580806     0.84700
C84         C  0.41393548  0.66499359  0.13542505     0.91000
O85         O  0.58693186  0.14702238  0.64367471    -0.72800
O86         O  0.65264892  0.17455187  0.63754387    -0.73800
O87         O  0.61802464  0.17346567  0.67389014    -0.62400
O88         O  0.62233454  0.14807128  0.60727955    -0.70800
O89         O  0.60699105  0.18171013  0.59340251    -0.70300
O90         O  0.60258558  0.20709491  0.66005670    -0.61600
O91         O  0.63705260  0.20810993  0.62383054    -0.74100
O92         O  0.57176437  0.18078443  0.62979971    -0.72900
Cu93       Cu  0.62041700  0.15952709  0.64105159     1.04600
Cu94       Cu  0.60396852  0.19550915  0.62625880     1.04300
C95         C  0.56889075  0.15975955  0.63800274     0.93400
C96         C  0.65522251  0.19592171  0.63011375     0.92600
C97         C  0.61040642  0.19461181  0.67746936     0.84700
C98         C  0.61611828  0.16118691  0.58970036     0.91000
O99         O  0.69242456  0.09966976  0.42527881    -0.72800
O100        O  0.72061719  0.09083202  0.36001030    -0.73800
O101        O  0.72235655  0.12725881  0.39509116    -0.62400
O102        O  0.69063841  0.06314150  0.39011725    -0.70800
O103        O  0.65919415  0.08043389  0.37353390    -0.70300
O104        O  0.69017134  0.14435379  0.37983802    -0.61600
O105        O  0.68909713  0.10886577  0.34431312    -0.74100
O106        O  0.66046474  0.11625573  0.40929415    -0.72900
Cu107      Cu  0.70759869  0.09458256  0.39323721     1.04600
Cu108      Cu  0.67360269  0.11299687  0.37623668     1.04300
C109        C  0.67209463  0.10958818  0.42772899     0.93400
C110        C  0.70940219  0.09885456  0.34186693     0.92600
C111        C  0.71121762  0.14597116  0.38828335     0.84700
C112        C  0.67007375  0.06165950  0.38044114     0.91000
O113        O  0.36866640  0.06150406  0.70814951    -0.72800
O114        O  0.37506689  0.12828901  0.73142988    -0.73800
O115        O  0.33988176  0.09242723  0.73540730    -0.62400
O116        O  0.40387995  0.09741801  0.70397455    -0.70800
O117        O  0.38668202  0.11043781  0.67100575    -0.70300
O118        O  0.32283920  0.10619932  0.70246344    -0.61600
O119        O  0.35812749  0.14169684  0.69839585    -0.74100
O120        O  0.35120940  0.07463946  0.67519499    -0.72900
Cu121      Cu  0.37251557  0.09442077  0.72085320     1.04600
Cu122      Cu  0.35416187  0.10866263  0.68557296     1.04300
C123        C  0.35845734  0.05742727  0.68826764     0.93400
C124        C  0.36750285  0.14563666  0.71872851     0.92600
C125        C  0.32126183  0.09882159  0.72394503     0.84700
C126        C  0.40551184  0.10502791  0.68253732     0.91000
O127        O  0.29715549  0.84216223  0.67137144    -0.72800
O128        O  0.32426820  0.84279586  0.60577685    -0.73800
O129        O  0.32303203  0.87545350  0.64407633    -0.62400
O130        O  0.29816347  0.80936500  0.63298770    -0.70800
O131        O  0.26384551  0.82454026  0.62031788    -0.70300
O132        O  0.28957355  0.89035403  0.62926699    -0.61600
O133        O  0.29034101  0.85684053  0.59151186    -0.74100
O134        O  0.26367317  0.85818228  0.65774660    -0.72900
Cu135      Cu  0.31184316  0.84191578  0.63898391     1.04600
Cu136      Cu  0.27569287  0.85800979  0.62415066     1.04300
C137        C  0.27623221  0.85025859  0.67503011     0.93400
C138        C  0.31168950  0.84960017  0.58813297     0.92600
C139        C  0.30999318  0.89337499  0.63877196     0.84700
C140        C  0.27692675  0.80658446  0.62528867     0.91000
O141        O  0.57911255  0.85932964  0.31132133    -0.72800
O142        O  0.64469013  0.86493727  0.28499894    -0.73800
O143        O  0.60886314  0.83009505  0.28322846    -0.62400
O144        O  0.61528052  0.89446570  0.31359651    -0.70800
O145        O  0.63106757  0.87746992  0.34570718    -0.70300
O146        O  0.62200231  0.81313543  0.31658083    -0.61600
O147        O  0.65929794  0.84696187  0.31701099    -0.74100
O148        O  0.59334248  0.84343952  0.34463489    -0.72900
Cu149      Cu  0.61143514  0.86286375  0.29721264     1.04600
Cu150      Cu  0.62690938  0.84472381  0.33220319     1.04300
C151        C  0.57570517  0.85010392  0.33182063     0.93400
C152        C  0.66234002  0.85617760  0.29638639     0.92600
C153        C  0.61454762  0.81154132  0.29517237     0.84700
C154        C  0.62477599  0.89610322  0.33422873     0.91000
O155        O  0.35283179  0.82316563  0.40335698    -0.72800
O156        O  0.36398029  0.79648781  0.33805278    -0.73800
O157        O  0.32527805  0.79575660  0.37083512    -0.62400
O158        O  0.39144712  0.82338508  0.37063619    -0.70800
O159        O  0.40489220  0.78964671  0.38598067    -0.70300
O160        O  0.33938748  0.76271491  0.38716597    -0.61600
O161        O  0.37695973  0.76264359  0.35408604    -0.74100
O162        O  0.36687891  0.78960862  0.41906280    -0.72900
Cu163      Cu  0.35789924  0.81093528  0.37016741     1.04600
Cu164      Cu  0.37256321  0.77508107  0.38714757     1.04300
C165        C  0.35775089  0.81030529  0.42149452     0.93400
C166        C  0.37202755  0.77530610  0.33582528     0.92600
C167        C  0.32185421  0.77478217  0.37911191     0.84700
C168        C  0.40880811  0.81057463  0.37803698     0.91000
O169        O  0.07756103  0.77944500  0.12967302    -0.72800
O170        O  0.14385686  0.75363607  0.12048675    -0.73800
O171        O  0.11015659  0.75352229  0.15809993    -0.62400
O172        O  0.11096298  0.77907107  0.09194081    -0.70800
O173        O  0.12604720  0.81311540  0.10491464    -0.70300
O174        O  0.12467955  0.78762427  0.17145401    -0.61600
O175        O  0.15811049  0.78790386  0.13392018    -0.74100
O176        O  0.09275849  0.81338511  0.14261968    -0.72900
Cu177      Cu  0.11006132  0.76523007  0.12454919     1.04600
Cu178      Cu  0.12588076  0.80168065  0.13865380     1.04300
C179        C  0.07467288  0.80049307  0.13784825     0.93400
C180        C  0.16153687  0.76684035  0.12616942     0.92600
C181        C  0.11729995  0.76646466  0.17537673     0.84700
C182        C  0.11910741  0.79985426  0.08777442     0.91000
O183        O  0.86494262  0.81469840  0.19865590    -0.72800
O184        O  0.85677194  0.88009305  0.17099814    -0.73800
O185        O  0.89441532  0.84631908  0.17238039    -0.62400
O186        O  0.82747989  0.84840949  0.19738061    -0.70800
O187        O  0.84091224  0.86334646  0.23136132    -0.70300
O188        O  0.90719008  0.86272188  0.20583845    -0.61600
O189        O  0.86903201  0.89553060  0.20531177    -0.74100
O190        O  0.87901028  0.83050349  0.23206168    -0.72900
Cu191      Cu  0.86047486  0.84683364  0.18360104     1.04600
Cu192      Cu  0.87452520  0.86359545  0.21975053     1.04300
C193        C  0.87324390  0.81231387  0.21973386     0.93400
C194        C  0.86111966  0.89812084  0.18415504     0.92600
C195        C  0.91151338  0.85396551  0.18534467     0.84700
C196        C  0.82365156  0.85599607  0.21849024     0.91000
O197        O  0.21789603  0.82608315  0.89468585    -0.72800
O198        O  0.19017670  0.89149399  0.88588998    -0.73800
O199        O  0.18952241  0.85683433  0.92257672    -0.62400
O200        O  0.21876219  0.86084143  0.85791255    -0.70800
O201        O  0.18606906  0.84514377  0.84234997    -0.70300
O202        O  0.15681898  0.84105088  0.90695023    -0.61600
O203        O  0.15757244  0.87555442  0.87037585    -0.74100
O204        O  0.18527651  0.81040978  0.87887581    -0.72900
Cu205      Cu  0.20522729  0.85939685  0.89082914     1.04600
Cu206      Cu  0.17030060  0.84250170  0.87410306     1.04300
C207        C  0.20589648  0.80786694  0.88819293     0.93400
C208        C  0.16953921  0.89387316  0.87658558     0.92600
C209        C  0.16861539  0.84822128  0.92500066     0.84700
C210        C  0.20699259  0.85372739  0.83982248     0.91000
O211        O  0.15389275  0.10200897  0.81627340    -0.72800
O212        O  0.08754982  0.11111840  0.84045446    -0.73800
O213        O  0.12121710  0.07324723  0.84173082    -0.62400
O214        O  0.12015402  0.13964069  0.81458715    -0.70800
O215        O  0.10444739  0.12531446  0.78122893    -0.70300
O216        O  0.10756306  0.05924636  0.80756174    -0.61600
O217        O  0.07287662  0.09577273  0.80708852    -0.74100
O218        O  0.13959282  0.08866398  0.78202498    -0.72900
Cu219      Cu  0.12118625  0.10697169  0.82947617     1.04600
Cu220      Cu  0.10563470  0.09174785  0.79329837     1.04300
C221        C  0.15734129  0.09392938  0.79529040     0.93400
C222        C  0.06977767  0.10491791  0.82769029     0.92600
C223        C  0.11491905  0.05561245  0.82873805     0.84700
C224        C  0.11170113  0.14289816  0.79367642     0.91000
O225        O  0.80462073  0.10471880  0.09639082    -0.72800
O226        O  0.77370556  0.09620239  0.16004435    -0.73800
O227        O  0.77403685  0.13243240  0.12504175    -0.62400
O228        O  0.80416178  0.06844935  0.13116435    -0.70800
O229        O  0.83591101  0.08463467  0.14810050    -0.70300
O230        O  0.80513144  0.14893674  0.14278758    -0.61600
O231        O  0.80536345  0.11212476  0.17747329    -0.74100
O232        O  0.83577065  0.12191236  0.11379524    -0.72900
Cu233      Cu  0.78806930  0.09983906  0.12755857     1.04600
Cu234      Cu  0.82168208  0.11742904  0.14617016     1.04300
C235        C  0.82483091  0.11505330  0.09510942     0.93400
C236        C  0.78454072  0.10303713  0.17883559     0.92600
C237        C  0.78479545  0.15090838  0.13269632     0.84700
C238        C  0.82469665  0.06627618  0.14070060     0.91000
O239        O  0.88786941  0.14651856  0.87211781    -0.72800
O240        O  0.82549040  0.17883444  0.88164677    -0.73800
O241        O  0.85924708  0.17736948  0.84460699    -0.62400
O242        O  0.85419743  0.14861053  0.90989725    -0.70800
O243        O  0.87235019  0.18031372  0.92496233    -0.70300
O244        O  0.87792148  0.20854041  0.86002183    -0.61600
O245        O  0.84335640  0.21064955  0.89671898    -0.74100
O246        O  0.90659452  0.17753462  0.88801998    -0.72900
Cu247      Cu  0.85610033  0.16170694  0.87660677     1.04600
Cu248      Cu  0.87575411  0.19533732  0.89301173     1.04300
C249        C  0.90707701  0.15691450  0.87831567     0.93400
C250        C  0.82436362  0.19983329  0.89028348     0.92600
C251        C  0.86932744  0.19762223  0.84202328     0.84700
C252        C  0.86213245  0.16020556  0.92780554     0.91000
O253        O  0.18269936  0.60596322  0.67320409    -0.72800
O254        O  0.15782112  0.61106119  0.60631237    -0.73800
O255        O  0.15517007  0.57600857  0.64265851    -0.62400
O256        O  0.18529665  0.64085481  0.63632507    -0.70800
O257        O  0.21881829  0.62387487  0.62386086    -0.70300
O258        O  0.18836191  0.55958713  0.62897346    -0.61600
O259        O  0.19132537  0.59490096  0.59303952    -0.74100
O260        O  0.21566328  0.58880277  0.65992454    -0.72900
Cu261      Cu  0.16905680  0.60901774  0.64013692     1.04600
Cu262      Cu  0.20464319  0.59116766  0.62597933     1.04300
C263        C  0.20322607  0.59692341  0.67718195     0.93400
C264        C  0.17082856  0.60402434  0.58904235     0.92600
C265        C  0.16699898  0.55752643  0.63654449     0.84700
C266        C  0.20684935  0.64247810  0.62914904     0.91000
O267        O  0.10853595  0.39125198  0.70620469    -0.72800
O268        O  0.10342001  0.32540129  0.73303894    -0.73800
O269        O  0.13845617  0.36173297  0.73436082    -0.62400
O270        O  0.07371631  0.35505949  0.70445002    -0.70800
O271        O  0.08996965  0.33929303  0.67204268    -0.70300
O272        O  0.15476080  0.34750696  0.70138871    -0.61600
O273        O  0.12030686  0.31034350  0.70070906    -0.74100
O274        O  0.12405104  0.37660316  0.67294003    -0.72900
Cu275      Cu  0.10543753  0.35884575  0.72061633     1.04600
Cu276      Cu  0.12286389  0.34293394  0.68559999     1.04300
C277        C  0.11684550  0.39436706  0.68526338     0.93400
C278        C  0.11139822  0.30749687  0.72150885     0.92600
C279        C  0.15693764  0.35547643  0.72259987     0.84700
C280        C  0.07162812  0.34628936  0.68353887     0.91000
O281        O  0.08014686  0.67569745  0.38664677    -0.72800
O282        O  0.14523197  0.70361798  0.39051222    -0.73800
O283        O  0.10869909  0.70383907  0.35651328    -0.62400
O284        O  0.11704252  0.67534404  0.42107867    -0.70800
O285        O  0.13253331  0.64260554  0.40531961    -0.70300
O286        O  0.12330892  0.67088636  0.34032513    -0.61600
O287        O  0.16034951  0.67108700  0.37383537    -0.74100
O288        O  0.09493574  0.64262848  0.37102230    -0.72900
Cu289      Cu  0.11220240  0.69064844  0.38933693     1.04600
Cu290      Cu  0.12824917  0.65553967  0.37213267     1.04300
C291        C  0.07705651  0.65498177  0.37786828     0.93400
C292        C  0.16293657  0.69217461  0.38199225     0.92600
C293        C  0.11502231  0.69200688  0.33818451     0.84700
C294        C  0.12677848  0.65493140  0.42357443     0.91000
O295        O  0.86869763  0.26178747  0.66327825    -0.72800
O296        O  0.86524949  0.28604720  0.59669518    -0.73800
O297        O  0.89995090  0.28712525  0.63297694    -0.62400
O298        O  0.83381424  0.26112046  0.62670477    -0.70800
O299        O  0.81893881  0.29541664  0.63955618    -0.70300
O300        O  0.88528930  0.32092454  0.64747831    -0.61600
O301        O  0.85123762  0.32061315  0.60983123    -0.74100
O302        O  0.85306478  0.29548243  0.67687424    -0.72900
Cu303      Cu  0.86743415  0.27284401  0.62948876     1.04600
Cu304      Cu  0.85161025  0.30935244  0.64389469     1.04300
C305        C  0.86141025  0.27461024  0.68058518     0.93400
C306        C  0.85772233  0.30712875  0.59266218     0.92600
C307        C  0.90303351  0.30806162  0.64133207     0.84700
C308        C  0.81591106  0.27424662  0.63175161     0.91000
O309        O  0.90781323  0.60309562  0.31001777    -0.72800
O310        O  0.84284079  0.59572722  0.28317974    -0.73800
O311        O  0.87721073  0.63238914  0.28343895    -0.62400
O312        O  0.87321901  0.56615764  0.31041224    -0.70800
O313        O  0.85753134  0.58072507  0.34354590    -0.70300
O314        O  0.86238618  0.64678169  0.31695273    -0.61600
O315        O  0.82721605  0.61061027  0.31622200    -0.74100
O316        O  0.89282870  0.61713116  0.34384277    -0.72900
Cu317      Cu  0.87581620  0.59875645  0.29566575     1.04600
Cu318      Cu  0.85945131  0.61424058  0.33135978     1.04300
C319        C  0.91068608  0.61198742  0.33070761     0.93400
C320        C  0.82469682  0.60228289  0.29519142     0.92600
C321        C  0.87053820  0.65018915  0.29600802     0.84700
C322        C  0.86447271  0.56292737  0.33122070     0.91000
O323        O  0.79787048  0.35733045  0.41971363    -0.72800
O324        O  0.77400982  0.35870561  0.35245954    -0.73800
O325        O  0.77474813  0.32464667  0.38963607    -0.62400
O326        O  0.79677263  0.39181110  0.38299257    -0.70800
O327        O  0.83236467  0.37952230  0.37120179    -0.70300
O328        O  0.80929013  0.31159681  0.37538401    -0.61600
O329        O  0.80975601  0.34748566  0.33961151    -0.74100
O330        O  0.83260491  0.34358228  0.40697858    -0.72900
Cu331      Cu  0.78466334  0.35860770  0.38663783     1.04600
Cu332      Cu  0.82228841  0.34510918  0.37287064     1.04300
C333        C  0.81894591  0.34984430  0.42403519     0.93400
C334        C  0.78821132  0.35341764  0.33547367     0.92600
C335        C  0.78837656  0.30753649  0.38349295     0.84700
C336        C  0.81785614  0.39646356  0.37595606     0.91000
C337        C  0.86123743  0.53834624  0.34044007    -0.11800
C338        C  0.85893387  0.53315196  0.36506197     0.03700
C339        C  0.85317935  0.51000269  0.37243502    -0.12300
C340        C  0.84994144  0.49179690  0.35573867     0.18500
C341        C  0.85323801  0.49659090  0.33138746    -0.09400
C342        C  0.85889316  0.51965672  0.32392007    -0.02300
H343        H  0.85093598  0.50623029  0.39123743     0.05100
C344        C  0.84181385  0.46813774  0.36366271     0.20500
H345        H  0.86064623  0.52309683  0.30500803     0.10200
C346        C  0.81746281  0.46297380  0.36269188    -0.15700
C347        C  0.80909672  0.44000851  0.36743230     0.03200
C348        C  0.82546525  0.42155527  0.37294614    -0.11000
C349        C  0.84983912  0.42713049  0.37472829    -0.01100
C350        C  0.85801672  0.45028365  0.37039317    -0.06200
H351        H  0.80496086  0.47678778  0.35756350     0.06200
H352        H  0.86262426  0.41341205  0.37936265     0.09600
Br353      Br  0.84949420  0.47221042  0.30770491    -0.05900
Br354      Br  0.86404744  0.55635843  0.38967211    -0.02900
Br355      Br  0.77531301  0.43522745  0.36438181     0.00000
Br356      Br  0.89142284  0.45675608  0.37332254    -0.04400
C357        C  0.82688360  0.34727176  0.44904277    -0.11800
C358        C  0.85121290  0.34651154  0.45570723     0.03700
C359        C  0.85741692  0.34149649  0.47935273    -0.12300
C360        C  0.83980288  0.33724739  0.49649171     0.18500
C361        C  0.81565689  0.33911730  0.49018777    -0.09400
C362        C  0.80938580  0.34413146  0.46668521    -0.02300
H363        H  0.87605845  0.34034633  0.48429063     0.05100
C364        C  0.84667671  0.32934976  0.52052257     0.20500
H365        H  0.79064874  0.34472883  0.46208411     0.10200
C366        C  0.85447991  0.34607103  0.53732574    -0.15700
C367        C  0.85898009  0.33917120  0.56089238     0.03200
C368        C  0.85543657  0.31522112  0.56778599    -0.11000
C369        C  0.84877461  0.29838714  0.55053390    -0.01100
C370        C  0.84444229  0.30526191  0.52706500    -0.06200
H371        H  0.85670879  0.36456064  0.53216900     0.06200
H372        H  0.84624753  0.27986761  0.55544617     0.09600
Br373      Br  0.79061590  0.33419113  0.51296906    -0.05900
Br374      Br  0.87684466  0.35258356  0.43383367    -0.02900
Br375      Br  0.87097507  0.36283277  0.58245957     0.00000
Br376      Br  0.83508011  0.28123237  0.50460216    -0.04400
C377        C  0.05262047  0.64580452  0.37424774    -0.11800
C378        C  0.03270116  0.65501705  0.38668984     0.03700
C379        C  0.00977888  0.64762149  0.38053202    -0.12300
C380        C  0.00613917  0.63110232  0.36223141     0.18500
C381        C  0.02588847  0.62146356  0.35016505    -0.09400
C382        C  0.04885990  0.62867330  0.35636074    -0.02300
H383        H  0.99460332  0.65527562  0.38969557     0.05100
C384        C  0.98158669  0.62579030  0.35464537     0.20500
H385        H  0.06377599  0.62147728  0.34645576     0.10200
C386        C  0.97439992  0.63300686  0.33184238    -0.15700
C387        C  0.95129272  0.62876872  0.32389640     0.03200
C388        C  0.93490463  0.61710152  0.33895562    -0.11000
C389        C  0.94177695  0.61060143  0.36208852    -0.01100
C390        C  0.96500233  0.61484741  0.37002365    -0.06200
H391        H  0.98679891  0.64225188  0.32026956     0.06200
H392        H  0.92917493  0.60188383  0.37385076     0.09600
Br393      Br  0.02241262  0.59882511  0.32474522    -0.05900
Br394      Br  0.03505788  0.67761656  0.41228244    -0.02900
Br395      Br  0.94267976  0.64094279  0.29301784     0.00000
Br396      Br  0.97333505  0.60492383  0.40168852    -0.04400
C397        C  0.04774817  0.34370138  0.67286884    -0.11800
C398        C  0.03043979  0.36181355  0.67477602     0.03700
C399        C  0.00713834  0.35758448  0.66703179    -0.12300
C400        C  0.00064448  0.33542038  0.65744018     0.18500
C401        C  0.01843569  0.31800491  0.65378024    -0.09400
C402        C  0.04176504  0.32227549  0.66147917    -0.02300
H403        H  0.99382835  0.37142098  0.66912204     0.05100
C404        C  0.97511487  0.33027198  0.65292949     0.20500
H405        H  0.05502640  0.30837124  0.65951611     0.10200
C406        C  0.96738356  0.32460245  0.62980765    -0.15700
C407        C  0.94377361  0.31774569  0.62558713     0.03200
C408        C  0.92738172  0.31710825  0.64455953    -0.11000
C409        C  0.93473559  0.32393202  0.66739598    -0.01100
C410        C  0.95842655  0.33021639  0.67177300    -0.06200
H411        H  0.97987538  0.32505436  0.61509836     0.06200
H412        H  0.92223285  0.32335248  0.68210543     0.09600
Br413      Br  0.01165332  0.28750468  0.63986337    -0.05900
Br414      Br  0.03786731  0.39285100  0.68708403    -0.02900
Br415      Br  0.93450956  0.30987656  0.59362428     0.00000
Br416      Br  0.96729998  0.33679948  0.70416461    -0.04400
C417        C  0.16294730  0.60763330  0.56415698    -0.11800
C418        C  0.13865629  0.60845074  0.55744078     0.03700
C419        C  0.13248910  0.61417487  0.53394639    -0.12300
C420        C  0.15011866  0.61913027  0.51699907     0.18500
C421        C  0.17425138  0.61764334  0.52343283    -0.09400
C422        C  0.18048457  0.61175268  0.54676289    -0.02300
H423        H  0.11386837  0.61526221  0.52897541     0.05100
C424        C  0.14313691  0.62779977  0.49324942     0.20500
H425        H  0.19918559  0.61129492  0.55149574     0.10200
C426        C  0.14397917  0.65232555  0.48886103    -0.15700
C427        C  0.13857600  0.66148108  0.46638300     0.03200
C428        C  0.13195387  0.64586654  0.44775647    -0.11000
C429        C  0.13111825  0.62119643  0.45226079    -0.01100
C430        C  0.13654977  0.61212528  0.47489172    -0.06200
H431        H  0.14936447  0.66437969  0.50294411     0.06200
H432        H  0.12620400  0.60895281  0.43817125     0.09600
Br433      Br  0.19929153  0.62428964  0.50111930    -0.05900
Br434      Br  0.11306829  0.60148971  0.57905229    -0.02900
Br435      Br  0.14259660  0.69525713  0.46209538     0.00000
Br436      Br  0.13536757  0.57832193  0.47997714    -0.04400
C437        C  0.15658798  0.53340534  0.63917838    -0.11800
C438        C  0.13178142  0.52899472  0.63816135     0.03700
C439        C  0.12298722  0.50622502  0.64355542    -0.12300
C440        C  0.13858974  0.48767144  0.64957573     0.18500
C441        C  0.16330696  0.49155539  0.64874104    -0.09400
C442        C  0.17209896  0.51424649  0.64369219    -0.02300
H443        H  0.10394257  0.50313802  0.64365698     0.05100
C444        C  0.12922976  0.46496601  0.65890275     0.20500
H445        H  0.19118834  0.51704305  0.64412765     0.10200
C446        C  0.12083630  0.44743829  0.64323429    -0.15700
C447        C  0.11550318  0.42449221  0.65161324     0.03200
C448        C  0.11909106  0.41886705  0.67589354    -0.11000
C449        C  0.12580568  0.43702225  0.69171175    -0.01100
C450        C  0.13072051  0.45994530  0.68341799    -0.06200
H451        H  0.11901048  0.45143958  0.62442976     0.06200
H452        H  0.12808906  0.43318297  0.71050247     0.09600
Br453      Br  0.18568751  0.46646235  0.65526579    -0.05900
Br454      Br  0.10911249  0.55284210  0.62873608    -0.02900
Br455      Br  0.10231307  0.40197985  0.62953358     0.00000
Br456      Br  0.14026647  0.48374677  0.70605201    -0.04400
C457        C  0.86338011  0.26515616  0.70499332    -0.11800
C458        C  0.84540449  0.26853060  0.72222995     0.03700
C459        C  0.84791556  0.25826835  0.74482405    -0.12300
C460        C  0.86821546  0.24485095  0.75064234     0.18500
C461        C  0.88631075  0.24182840  0.73356543    -0.09400
C462        C  0.88371738  0.25183412  0.71093991    -0.02300
H463        H  0.83374670  0.26032563  0.75777097     0.05100
C464        C  0.86954071  0.23298671  0.77408390     0.20500
H465        H  0.89776266  0.24930729  0.69794556     0.10200
C466        C  0.86935822  0.20801092  0.77506646    -0.15700
C467        C  0.86999276  0.19600335  0.79688664     0.03200
C468        C  0.87031094  0.20915108  0.81834223    -0.11000
C469        C  0.87090754  0.23420452  0.81722429    -0.01100
C470        C  0.87051773  0.24613488  0.79537018    -0.06200
H471        H  0.86876305  0.19779715  0.75870319     0.06200
H472        H  0.87127742  0.24464932  0.83344497     0.09600
Br473      Br  0.91509425  0.22461607  0.74041181    -0.05900
Br474      Br  0.81632005  0.28527080  0.71546845    -0.02900
Br475      Br  0.87169110  0.16181174  0.79584598     0.00000
Br476      Br  0.87180330  0.28033533  0.79552022    -0.04400
C477        C  0.83489492  0.12035345  0.07172697    -0.11800
C478        C  0.84286990  0.10218653  0.05646306     0.03700
C479        C  0.84995370  0.10789899  0.03325494    -0.12300
C480        C  0.84899227  0.13156073  0.02516170     0.18500
C481        C  0.84132117  0.14973335  0.04064280    -0.09400
C482        C  0.83461890  0.14404774  0.06388315    -0.02300
H483        H  0.85569142  0.09384970  0.02133367     0.05100
C484        C  0.85381157  0.13679170  0.99995439     0.20500
H485        H  0.82812734  0.15801168  0.07553724     0.10200
C486        C  0.83622875  0.13135048  0.98312408    -0.15700
C487        C  0.83869999  0.13842754  0.95938763     0.03200
C488        C  0.85941528  0.15071907  0.95213934    -0.11000
C489        C  0.87727735  0.15560288  0.96900362    -0.01100
C490        C  0.87457272  0.14881262  0.99279763    -0.06200
H491        H  0.81999754  0.12252389  0.98874482     0.06200
H492        H  0.89323674  0.16511258  0.96374149     0.09600
Br493      Br  0.83784997  0.18219028  0.03027590    -0.05900
Br494      Br  0.84425503  0.06955141  0.06668618    -0.02900
Br495      Br  0.81198160  0.13323349  0.93864661     0.00000
Br496      Br  0.89922787  0.15695698  0.01503609    -0.04400
C497        C  0.11052685  0.16711026  0.78359449    -0.11800
C498        C  0.08945039  0.17598514  0.77315409     0.03700
C499        C  0.08929749  0.19869462  0.76276436    -0.12300
C500        C  0.10998529  0.21271474  0.76244641     0.18500
C501        C  0.13097553  0.20388703  0.77306805    -0.09400
C502        C  0.13105331  0.18132512  0.78371172    -0.02300
H503        H  0.07296547  0.20551875  0.75503177     0.05100
C504        C  0.10926730  0.23682196  0.75172177     0.20500
H505        H  0.14737795  0.17459077  0.79153994     0.10200
C506        C  0.11147710  0.25669867  0.76662324    -0.15700
C507        C  0.11215600  0.27978677  0.75723339     0.03200
C508        C  0.11035815  0.28336182  0.73231657    -0.11000
C509        C  0.10787098  0.26335041  0.71743855    -0.01100
C510        C  0.10718685  0.24024359  0.72694860    -0.06200
H511        H  0.11317822  0.25416809  0.78568945     0.06200
H512        H  0.10642192  0.26566944  0.69832032     0.09600
Br513      Br  0.16023704  0.22155990  0.77251205    -0.05900
Br514      Br  0.06014251  0.15834049  0.77384659    -0.02900
Br515      Br  0.11742392  0.30524241  0.77949064     0.00000
Br516      Br  0.10425903  0.21386660  0.70541272    -0.04400
C517        C  0.92997284  0.14543805  0.87287475    -0.11800
C518        C  0.94804951  0.14287579  0.89006151     0.03700
C519        C  0.97023691  0.13368681  0.88335386    -0.12300
C520        C  0.97478896  0.12731387  0.85957274     0.18500
C521        C  0.95628051  0.12881611  0.84267818    -0.09400
C522        C  0.93404055  0.13766182  0.84947968    -0.02300
H523        H  0.98423933  0.13216273  0.89656505     0.05100
C524        C  0.99932751  0.12102703  0.85234088     0.20500
H525        H  0.92016358  0.13947326  0.83616171     0.10200
C526        C  0.00430762  0.09823758  0.84326048    -0.15700
C527        C  0.02716580  0.09250639  0.83503496     0.03200
C528        C  0.04554761  0.10955196  0.83652316    -0.11000
C529        C  0.04065750  0.13206975  0.84614913    -0.01100
C530        C  0.01773605  0.13802915  0.85366245    -0.06200
H531        H  0.99028172  0.08501719  0.84226405     0.06200
H532        H  0.05457369  0.14542969  0.84701347     0.09600
Br533      Br  0.96092087  0.12086704  0.80973442    -0.05900
Br534      Br  0.94303877  0.15105837  0.92287477    -0.02900
Br535      Br  0.03250179  0.06106814  0.82265785     0.00000
Br536      Br  0.01217379  0.17020524  0.86390940    -0.04400
C537        C  0.15914743  0.91782066  0.87293391    -0.11800
C538        C  0.17338308  0.93820704  0.86883134     0.03700
C539        C  0.16253878  0.96019137  0.86457140    -0.12300
C540        C  0.13770676  0.96232793  0.86393297     0.18500
C541        C  0.12342899  0.94221027  0.86804124    -0.09400
C542        C  0.13417353  0.92019835  0.87264440    -0.02300
H543        H  0.17355676  0.97562103  0.86081986     0.05100
C544        C  0.12748890  0.98529707  0.85649330     0.20500
H545        H  0.12291431  0.90482555  0.87578772     0.10200
C546        C  0.12020911  0.98796153  0.83281922    -0.15700
C547        C  0.11484726  0.01043121  0.82349819     0.03200
C548        C  0.11695429  0.03093302  0.83817780    -0.11000
C549        C  0.12277999  0.02777362  0.86240839    -0.01100
C550        C  0.12804879  0.00521063  0.87156123    -0.06200
H551        H  0.11979434  0.97254166  0.82120314     0.06200
H552        H  0.12399890  0.04297175  0.87421532     0.09600
Br553      Br  0.08931858  0.94403599  0.86725933    -0.05900
Br554      Br  0.20749118  0.93724528  0.86644048    -0.02900
Br555      Br  0.10634713  0.01113795  0.79029370     0.00000
Br556      Br  0.13661196  0.00235778  0.90454123    -0.04400
C557        C  0.87500283  0.78841362  0.23035810    -0.11800
C558        C  0.89457279  0.78144551  0.24455707     0.03700
C559        C  0.89460007  0.75899186  0.25545129    -0.12300
C560        C  0.87523217  0.74351199  0.25260767     0.18500
C561        C  0.85571859  0.75047699  0.23852222    -0.09400
C562        C  0.85586001  0.77266249  0.22726558    -0.02300
H563        H  0.90969669  0.75359683  0.26620624     0.05100
C564        C  0.87551590  0.72008086  0.26439005     0.20500
H565        H  0.84058401  0.77794548  0.21667957     0.10200
C566        C  0.86446571  0.71747196  0.28656420    -0.15700
C567        C  0.86284178  0.69512466  0.29753853     0.03200
C568        C  0.87240578  0.67470876  0.28602198    -0.11000
C569        C  0.88399998  0.67776635  0.26394392    -0.01100
C570        C  0.88562775  0.70017169  0.25319318    -0.06200
H571        H  0.85669884  0.73290399  0.29518769     0.06200
H572        H  0.89175024  0.66266568  0.25479947     0.09600
Br573      Br  0.82826028  0.73049613  0.23470516    -0.05900
Br574      Br  0.92203531  0.80137246  0.24888454    -0.02900
Br575      Br  0.84674632  0.69444314  0.32777762     0.00000
Br576      Br  0.90136411  0.70278471  0.22294813    -0.04400
C577        C  0.85678948  0.92223755  0.17511565    -0.11800
C578        C  0.84387414  0.93884860  0.18875294     0.03700
C579        C  0.84109853  0.96208540  0.18042169    -0.12300
C580        C  0.85103105  0.96916577  0.15860616     0.18500
C581        C  0.86377395  0.95249968  0.14481530    -0.09400
C582        C  0.86631362  0.92907504  0.15303363    -0.02300
H583        H  0.83103135  0.97473630  0.19098574     0.05100
C584        C  0.84771994  0.99414778  0.15112641     0.20500
H585        H  0.87638962  0.91638549  0.14254689     0.10200
C586        C  0.85708859  0.01223686  0.16557980    -0.15700
C587        C  0.85075967  0.03607422  0.16202760     0.03200
C588        C  0.83489588  0.04212452  0.14339745    -0.11000
C589        C  0.82658883  0.02402709  0.12819216    -0.01100
C590        C  0.83257542  0.00020025  0.13209176    -0.06200
H591        H  0.86843063  0.00759666  0.18052531     0.06200
H592        H  0.81443319  0.02826683  0.11379399     0.09600
Br593      Br  0.87902210  0.96109756  0.11543135    -0.05900
Br594      Br  0.82864295  0.93043505  0.21826790    -0.02900
Br595      Br  0.86240017  0.05866783  0.18496002     0.00000
Br596      Br  0.81742347  0.97656773  0.11256148    -0.04400
C597        C  0.11400306  0.70311406  0.31440401    -0.11800
C598        C  0.09695256  0.72065956  0.30830624     0.03700
C599        C  0.09761309  0.73118571  0.28573012    -0.12300
C600        C  0.11509893  0.72466696  0.26920520     0.18500
C601        C  0.13217961  0.70740435  0.27525157    -0.09400
C602        C  0.13139710  0.69662006  0.29761933    -0.02300
H603        H  0.08434866  0.74444008  0.28095540     0.05100
C604        C  0.11504934  0.73572512  0.24551273     0.20500
H605        H  0.14479812  0.68342594  0.30206220     0.10200
C606        C  0.12815500  0.75657536  0.24175752    -0.15700
C607        C  0.12907949  0.76719013  0.21922782     0.03200
C608        C  0.11670314  0.75664370  0.19990098    -0.11000
C609        C  0.10337421  0.73576586  0.20405061    -0.01100
C610        C  0.10241086  0.72539421  0.22662678    -0.06200
H611        H  0.13787932  0.76448382  0.25641112     0.06200
H612        H  0.09352627  0.72742505  0.18972510     0.09600
Br613      Br  0.15702429  0.69827006  0.25362156    -0.05900
Br614      Br  0.07173428  0.73030832  0.32933450    -0.02900
Br615      Br  0.14819849  0.79548141  0.21656356     0.00000
Br616      Br  0.08367402  0.69710187  0.23097791    -0.04400
C617        C  0.15871825  0.84526450  0.94903014    -0.11800
C618        C  0.13410497  0.84736816  0.95380827     0.03700
C619        C  0.12546764  0.84173227  0.97648200    -0.12300
C620        C  0.14108816  0.83420712  0.99441407     0.18500
C621        C  0.16567607  0.83299412  0.98995229    -0.09400
C622        C  0.17433237  0.83863407  0.96740928    -0.02300
H623        H  0.10653346  0.84289126  0.98006375     0.05100
C624        C  0.13162539  0.82619579  0.01735874     0.20500
H625        H  0.19324988  0.83691047  0.96400359     0.10200
C626        C  0.12806278  0.80178293  0.02080608    -0.15700
C627        C  0.12300062  0.79272786  0.04338778     0.03200
C628        C  0.12129973  0.80850357  0.06302274    -0.11000
C629        C  0.12368206  0.83317351  0.05907647    -0.01100
C630        C  0.12886330  0.84205515  0.03643477    -0.06200
H631        H  0.13041661  0.78959995  0.00601891     0.06200
H632        H  0.12224359  0.84559483  0.07377169     0.09600
Br633      Br  0.18794170  0.82282593  0.01389328    -0.05900
Br634      Br  0.11165599  0.85858392  0.93051582    -0.02900
Br635      Br  0.12105063  0.75857376  0.04589560     0.00000
Br636      Br  0.13345630  0.87571618  0.03252897    -0.04400
C637        C  0.05053305  0.81035349  0.14223983    -0.11800
C638        C  0.02954029  0.79639118  0.14121246     0.03700
C639        C  0.00756501  0.80678450  0.14654627    -0.12300
C640        C  0.00587504  0.83082897  0.15306517     0.18500
C641        C  0.02661592  0.84475623  0.15424963    -0.09400
C642        C  0.04858608  0.83457611  0.14865472    -0.02300
H643        H  0.99165772  0.79585741  0.14617648     0.05100
C644        C  0.98244857  0.84030852  0.16021301     0.20500
H645        H  0.06427909  0.84575634  0.14965527     0.10200
C646        C  0.97890935  0.84699209  0.18396364    -0.15700
C647        C  0.95629787  0.85308239  0.19232244     0.03200
C648        C  0.93640744  0.85170788  0.17678502    -0.11000
C649        C  0.94035160  0.84617910  0.15263642    -0.01100
C650        C  0.96313425  0.84069395  0.14428327    -0.06200
H651        H  0.99377351  0.84676063  0.19629348     0.06200
H652        H  0.92559542  0.84563725  0.14020866     0.12000
Br653      Br  0.02592766  0.87771564  0.16343458    -0.05900
Br654      Br  0.02905142  0.76291332  0.13396667    -0.02900
Br655      Br  0.95445712  0.86189365  0.22538076     0.00000
Br656      Br  0.96707368  0.83377006  0.11101730    -0.04400
C657        C  0.18638001  0.70381839  0.38132627    -0.11800
C658        C  0.20135622  0.70235911  0.36116472     0.03700
C659        C  0.22298783  0.71467364  0.36095622    -0.12300
C660        C  0.22995613  0.72845418  0.38055951     0.18500
C661        C  0.21500438  0.73003509  0.40058412    -0.09400
C662        C  0.19331644  0.71787907  0.40079060    -0.02300
H663        H  0.23441161  0.71356451  0.34545985     0.05100
C664        C  0.25327114  0.74041166  0.38009187     0.20500
H665        H  0.18194364  0.71922172  0.41629452     0.10200
C666        C  0.25448577  0.76505233  0.37620639    -0.15700
C667        C  0.27646015  0.77686435  0.37579617     0.03200
C668        C  0.29779089  0.76375820  0.37923889    -0.11000
C669        C  0.29621933  0.73897896  0.38315728    -0.01100
C670        C  0.27428455  0.72735524  0.38360556    -0.06200
H671        H  0.23822724  0.77513407  0.37362594     0.06200
H672        H  0.31214661  0.72841444  0.38586705     0.09600
Br673      Br  0.22381554  0.74795186  0.42829528    -0.05900
Br674      Br  0.19263285  0.68529323  0.33282286    -0.02900
Br675      Br  0.27550602  0.81081465  0.37135134     0.00000
Br676      Br  0.27376851  0.69365940  0.38967950    -0.04400
C677        C  0.68620889  0.85672328  0.28518801    -0.11800
C678        C  0.70419320  0.83990401  0.29073011     0.03700
C679        C  0.72611385  0.84096538  0.27896819    -0.12300
C680        C  0.73043747  0.85823305  0.26146844     0.18500
C681        C  0.71248567  0.87460758  0.25545773    -0.09400
C682        C  0.69067581  0.87386465  0.26738694    -0.02300
H683        H  0.73984288  0.82803334  0.28329075     0.05100
C684        C  0.75377945  0.85859874  0.24956052     0.20500
H685        H  0.67706729  0.88672476  0.26254960     0.10200
C686        C  0.75875708  0.84162836  0.23198787    -0.15700
C687        C  0.78123266  0.84050683  0.22129983     0.03200
C688        C  0.79921588  0.85671468  0.22831687    -0.11000
C689        C  0.79397234  0.87377033  0.24590113    -0.01100
C690        C  0.77151870  0.87480250  0.25650231    -0.06200
H691        H  0.74511344  0.82885252  0.22685988     0.06200
H692        H  0.80749573  0.88636977  0.25160287     0.09600
Br693      Br  0.71674913  0.89772616  0.23058010    -0.05900
Br694      Br  0.69971581  0.81391598  0.31261672    -0.02900
Br695      Br  0.78644530  0.81532214  0.19873265     0.00000
Br696      Br  0.76609822  0.89802244  0.28099332    -0.04400
C697        C  0.55116935  0.84690383  0.34060767    -0.11800
C698        C  0.53221868  0.84140774  0.32496461     0.03700
C699        C  0.50929123  0.83840279  0.33397916    -0.12300
C700        C  0.50467991  0.84069963  0.35838514     0.18500
C701        C  0.52353065  0.84582738  0.37410170    -0.09400
C702        C  0.54657967  0.84888902  0.36514028    -0.02300
H703        H  0.49498488  0.83364244  0.32191030     0.05100
C704        C  0.48038915  0.83551104  0.36689408     0.20500
H705        H  0.56093117  0.85299417  0.37737378     0.10200
C706        C  0.47656684  0.81472809  0.38013941    -0.15700
C707        C  0.45354011  0.80667403  0.38497899     0.03200
C708        C  0.43359903  0.81968163  0.37635953    -0.11000
C709        C  0.43766271  0.84127205  0.36417146    -0.01100
C710        C  0.46076176  0.84910957  0.35927474    -0.06200
H711        H  0.49165924  0.80409033  0.38583194     0.06200
H712        H  0.42284859  0.85172951  0.35751636     0.09600
Br713      Br  0.51860940  0.84916068  0.40776307    -0.05900
Br714      Br  0.53645181  0.83571050  0.29145227    -0.02900
Br715      Br  0.45147125  0.77731567  0.40262412     0.00000
Br716      Br  0.46466867  0.87804682  0.34136617    -0.04400
C717        C  0.26662412  0.85107422  0.69944440    -0.11800
C718        C  0.27245003  0.83367681  0.71674007     0.03700
C719        C  0.26295901  0.83542798  0.73965357    -0.12300
C720        C  0.24760523  0.85414569  0.74566103     0.18500
C721        C  0.24187514  0.87158089  0.72860074    -0.09400
C722        C  0.25131400  0.86990565  0.70565207    -0.02300
H723        H  0.26718008  0.82185711  0.75276695     0.05100
C724        C  0.23692361  0.85448594  0.76953918     0.20500
H725        H  0.24676296  0.88346090  0.69265132     0.10200
C726        C  0.24501128  0.87098527  0.78637889    -0.15700
C727        C  0.23550203  0.87132699  0.80939541     0.03200
C728        C  0.21759394  0.85474369  0.81577236    -0.11000
C729        C  0.20944122  0.83844522  0.79861358    -0.01100
C730        C  0.21896681  0.83819745  0.77569794    -0.06200
H731        H  0.25875961  0.88365707  0.78154387     0.06200
H732        H  0.19573822  0.82559932  0.80306845     0.09600
Br733      Br  0.22069836  0.89749247  0.73567559    -0.05900
Br734      Br  0.29173591  0.80619998  0.70998413    -0.02900
Br735      Br  0.24709938  0.89559843  0.83051553     0.00000
Br736      Br  0.20664158  0.81554861  0.75325233    -0.04400
C737        C  0.26703135  0.78245337  0.62306570    -0.11800
C738        C  0.27764204  0.76508258  0.60839928     0.03700
C739        C  0.26822591  0.74192662  0.60779656    -0.12300
C740        C  0.24837895  0.73592583  0.62180413     0.18500
C741        C  0.23773556  0.75340161  0.63627113    -0.09400
C742        C  0.24692796  0.77652453  0.63662938    -0.02300
H743        H  0.27642100  0.72858422  0.59651974     0.05100
C744        C  0.23909460  0.71130795  0.62187530     0.20500
H745        H  0.23875635  0.78976604  0.64805691     0.10200
C746        C  0.24787288  0.69506006  0.63875829    -0.15700
C747        C  0.23752240  0.67250925  0.64132335     0.03200
C748        C  0.21809735  0.66601761  0.62685659    -0.11000
C749        C  0.20947766  0.68215310  0.60979244    -0.01100
C750        C  0.21991714  0.70466287  0.60714475    -0.06200
H751        H  0.26232523  0.70023096  0.65045869     0.06200
H752        H  0.19462263  0.67720955  0.59849789     0.09600
Br753      Br  0.21104973  0.74616602  0.65638839    -0.05900
Br754      Br  0.30431927  0.77261458  0.58834528    -0.02900
Br755      Br  0.24927992  0.65180631  0.66593974     0.00000
Br756      Br  0.20716281  0.72600401  0.58364155    -0.04400
C757        C  0.32152234  0.84861680  0.56357995    -0.11800
C758        C  0.34374057  0.83775532  0.55816511     0.03700
C759        C  0.35079595  0.83525784  0.53443661    -0.12300
C760        C  0.33623497  0.84319239  0.51585575     0.18500
C761        C  0.31470857  0.85479382  0.52101729    -0.09400
C762        C  0.30760728  0.85762543  0.54469305    -0.02300
H763        H  0.36724894  0.82601630  0.53036897     0.05100
C764        C  0.34189098  0.83562340  0.49147145     0.20500
H765        H  0.29066118  0.86615090  0.54820096     0.10200
C766        C  0.33418757  0.81303645  0.48428847    -0.15700
C767        C  0.33923467  0.80461392  0.46151543     0.03200
C768        C  0.35217783  0.81898532  0.44549255    -0.11000
C769        C  0.35966970  0.84178937  0.45256987    -0.01100
C770        C  0.35481997  0.85008109  0.47559407    -0.06200
H771        H  0.32410525  0.80195168  0.49648067     0.06200
H772        H  0.36966029  0.85292612  0.44035272     0.09600
Br773      Br  0.29374166  0.86548387  0.49618693    -0.05900
Br774      Br  0.36499571  0.82425694  0.58146439    -0.02900
Br775      Br  0.32679752  0.77392454  0.45284149     0.00000
Br776      Br  0.36641592  0.88084713  0.48485662    -0.04400
C777        C  0.29771515  0.09728473  0.73550603    -0.11800
C778        C  0.27999273  0.11478361  0.73181051     0.03700
C779        C  0.25763353  0.11213091  0.74241109    -0.12300
C780        C  0.25266908  0.09250236  0.75705558     0.18500
C781        C  0.27045797  0.07537369  0.76131446    -0.09400
C782        C  0.29279362  0.07783140  0.75053264    -0.02300
H783        H  0.24414371  0.12566571  0.73957578     0.05100
C784        C  0.22902547  0.09093324  0.76835186     0.20500
H785        H  0.30628769  0.06440397  0.75375228     0.10200
C786        C  0.21164490  0.07593464  0.75859181    -0.15700
C787        C  0.18835560  0.07587024  0.76755542     0.03200
C788        C  0.18208955  0.09151573  0.78631771    -0.11000
C789        C  0.19998996  0.10570538  0.79665844    -0.01100
C790        C  0.22327208  0.10540353  0.78790525    -0.06200
H791        H  0.21618502  0.06440324  0.74380335     0.06200
H792        H  0.19581317  0.11751246  0.81133392     0.09600
Br793      Br  0.26522218  0.04887092  0.78228631    -0.05900
Br794      Br  0.28577186  0.14362962  0.71423622    -0.02900
Br795      Br  0.16656144  0.05317676  0.75411465     0.00000
Br796      Br  0.24678793  0.12499428  0.80312977    -0.04400
C797        C  0.35464709  0.03267590  0.68040882    -0.11800
C798        C  0.34975714  0.01415485  0.69681730     0.03700
C799        C  0.34492318  0.99125301  0.68846275    -0.12300
C800        C  0.34457361  0.98645682  0.66400811     0.18500
C801        C  0.34955196  0.00472713  0.64761633    -0.09400
C802        C  0.35463734  0.02764100  0.65587761    -0.02300
H803        H  0.34048328  0.97727918  0.70105912     0.05100
C804        C  0.33619348  0.96299508  0.65607872     0.20500
H805        H  0.35820577  0.04166121  0.64305751     0.10200
C806        C  0.31165512  0.95875241  0.65586758    -0.15700
C807        C  0.30267172  0.93634577  0.65002171     0.03200
C808        C  0.31853674  0.91768112  0.64403501    -0.11000
C809        C  0.34320416  0.92211926  0.64417346    -0.01100
C810        C  0.35208712  0.94459677  0.65017419    -0.06200
H811        H  0.29944253  0.97286949  0.66084453     0.06200
H812        H  0.35563947  0.90802537  0.63976928     0.09600
Br813      Br  0.34832738  0.99938637  0.61388322    -0.05900
Br814      Br  0.34676566  0.01922399  0.73056740    -0.02900
Br815      Br  0.26877454  0.93227443  0.65270654     0.00000
Br816      Br  0.38592588  0.94926162  0.65082165    -0.04400
C817        C  0.77943429  0.28298623  0.38538736    -0.11800
C818        C  0.76962395  0.27428664  0.40682945     0.03700
C819        C  0.75953037  0.25151194  0.40752569    -0.12300
C820        C  0.75864545  0.23734238  0.38697598     0.18500
C821        C  0.76805489  0.24623464  0.36543847    -0.09400
C822        C  0.77880027  0.26872477  0.36490632    -0.02300
H823        H  0.75212209  0.24490375  0.42409064     0.05100
C824        C  0.74686998  0.21381759  0.38816170     0.20500
H825        H  0.78567129  0.27556408  0.34819200     0.10200
C826        C  0.72222471  0.21280921  0.39201786    -0.15700
C827        C  0.71026083  0.19094809  0.39265418     0.03200
C828        C  0.72310789  0.16949461  0.38940551    -0.11000
C829        C  0.74794547  0.17058718  0.38637722    -0.01100
C830        C  0.75983735  0.19247726  0.38575296    -0.06200
H831        H  0.71222234  0.22916239  0.39438262     0.06200
H832        H  0.75814563  0.15436713  0.38402607     0.09600
Br833      Br  0.76487124  0.22919201  0.33597152    -0.05900
Br834      Br  0.76990673  0.29265478  0.43568995    -0.02900
Br835      Br  0.67666062  0.19175660  0.39916026     0.00000
Br836      Br  0.79382174  0.19232237  0.38194783    -0.04400
C837        C  0.77307163  0.10056050  0.20239209    -0.11800
C838        C  0.74827482  0.10349852  0.20549997     0.03700
C839        C  0.73838735  0.10177974  0.22829149    -0.12300
C840        C  0.75278128  0.09795907  0.24838870     0.18500
C841        C  0.77751190  0.09474905  0.24527048    -0.09400
C842        C  0.78734393  0.09605977  0.22243460    -0.02300
H843        H  0.71933661  0.10417698  0.23046131     0.05100
C844        C  0.74168337  0.09816966  0.27237033     0.20500
H845        H  0.80666903  0.09374722  0.22033313     0.10200
C846        C  0.74311441  0.07783044  0.28693835    -0.15700
C847        C  0.73278612  0.07754585  0.30966745     0.03200
C848        C  0.72029806  0.09773859  0.31794061    -0.11000
C849        C  0.71844940  0.11784770  0.30314900    -0.01100
C850        C  0.72915866  0.11831841  0.28069029    -0.06200
H851        H  0.75223760  0.06205461  0.28054268     0.06200
H852        H  0.70912438  0.13356804  0.30935345     0.09600
Br853      Br  0.79883174  0.08978847  0.27156887    -0.05900
Br854      Br  0.72723428  0.11221903  0.17990832    -0.02900
Br855      Br  0.73518935  0.04871604  0.32797237     0.00000
Br856      Br  0.72701043  0.14742227  0.26270679    -0.04400
C857        C  0.65915262  0.03799180  0.37666271    -0.11800
C858        C  0.64695321  0.03244057  0.35536048     0.03700
C859        C  0.63908500  0.00916766  0.35132711    -0.12300
C860        C  0.64245896  0.99123323  0.36843711     0.18500
C861        C  0.65338817  0.99705461  0.39027580    -0.09400
C862        C  0.66197283  0.02017765  0.39407559    -0.02300
H863        H  0.63097658  0.00484145  0.33433781     0.05100
C864        C  0.63688096  0.96624630  0.36197247     0.20500
H865        H  0.67087806  0.02426770  0.41071745     0.10200
C866        C  0.65557853  0.94964271  0.36101199    -0.15700
C867        C  0.65175496  0.92649262  0.35272285     0.03200
C868        C  0.62896841  0.91977186  0.34464505    -0.11000
C869        C  0.61018141  0.93622864  0.34576916    -0.01100
C870        C  0.61389705  0.95924193  0.35463850    -0.06200
H871        H  0.67342506  0.95493364  0.36613488     0.06200
H872        H  0.59253312  0.93110704  0.33984753     0.09600
Br873      Br  0.65646863  0.97414157  0.41554291    -0.05900
Br874      Br  0.64217175  0.05515780  0.33013990    -0.02900
Br875      Br  0.67869901  0.90543210  0.35104532     0.00000
Br876      Br  0.58697346  0.98020564  0.35694847    -0.04400
C877        C  0.67910941  0.20710493  0.62890705    -0.11800
C878        C  0.69910907  0.19812806  0.64147883     0.03700
C879        C  0.72078162  0.21034437  0.64046083    -0.12300
C880        C  0.72295168  0.23152195  0.62743503     0.18500
C881        C  0.70327814  0.24051638  0.61492399    -0.09400
C882        C  0.68165890  0.22828159  0.61560378    -0.02300
H883        H  0.73598145  0.20352875  0.65025633     0.05100
C884        C  0.74592238  0.24407131  0.62745723     0.20500
H885        H  0.66669778  0.23561279  0.60584419     0.10200
C886        C  0.76290177  0.23831845  0.61014851    -0.15700
C887        C  0.78551921  0.24869370  0.61063427     0.03200
C888        C  0.79155243  0.26468688  0.62910726    -0.11000
C889        C  0.77405293  0.27118865  0.64580168    -0.01100
C890        C  0.75131735  0.26106327  0.64501255    -0.06200
H891        H  0.75852050  0.22567927  0.59623002     0.06200
H892        H  0.77823376  0.28373428  0.65986178     0.09600
Br893      Br  0.70501501  0.26977931  0.59727784    -0.05900
Br894      Br  0.69826924  0.17031308  0.66151498    -0.02900
Br895      Br  0.80672430  0.24145886  0.58477628     0.00000
Br896      Br  0.72816418  0.27066301  0.66826614    -0.04400
C897        C  0.54459040  0.15006748  0.64109288    -0.11800
C898        C  0.52502418  0.16477308  0.64714598     0.03700
C899        C  0.50268247  0.15457549  0.65112728    -0.12300
C900        C  0.49929231  0.12992410  0.64918396     0.18500
C901        C  0.51844347  0.11532540  0.64226817    -0.09400
C902        C  0.54093012  0.12540143  0.63852007    -0.02300
H903        H  0.48797146  0.16587336  0.65648968     0.05100
C904        C  0.47587081  0.12002220  0.65583824     0.20500
H905        H  0.55559841  0.11390388  0.63350705     0.10200
C906        C  0.45606727  0.12499986  0.64150746    -0.15700
C907        C  0.43300372  0.11925165  0.64904576     0.03200
C908        C  0.42947700  0.10845207  0.67168496    -0.11000
C909        C  0.44966803  0.10244409  0.68535694    -0.01100
C910        C  0.47261388  0.10825779  0.67772491    -0.06200
H911        H  0.45854399  0.13412501  0.62465463     0.06200
H912        H  0.44766751  0.09404919  0.70263446     0.09600
Br913      Br  0.51459726  0.08168867  0.63751919    -0.05900
Br914      Br  0.52765805  0.19856429  0.65216396    -0.02900
Br915      Br  0.40766597  0.12779026  0.62759104     0.00000
Br916      Br  0.49873125  0.10165128  0.69883962    -0.04400
C917        C  0.62031566  0.15261136  0.56505719    -0.11800
C918        C  0.62420884  0.16841847  0.54573004     0.03700
C919        C  0.63034625  0.15936629  0.52335641    -0.12300
C920        C  0.63283218  0.13479928  0.51967325     0.18500
C921        C  0.62855801  0.11898728  0.53865995    -0.09400
C922        C  0.62232928  0.12791967  0.56106800    -0.02300
H923        H  0.63402607  0.17163313  0.50888439     0.05100
C924        C  0.64180670  0.12633619  0.49642078     0.20500
H925        H  0.61938454  0.11545305  0.57553928     0.10200
C926        C  0.66485241  0.11686484  0.49511755    -0.15700
C927        C  0.67499451  0.11060855  0.47323086     0.03200
C928        C  0.66189859  0.11399737  0.45184447    -0.11000
C929        C  0.63848194  0.12297826  0.45346945    -0.01100
C930        C  0.62847240  0.12914136  0.47542367    -0.06200
H931        H  0.67525466  0.11485729  0.51126558     0.06200
H932        H  0.62786969  0.12556369  0.43755285     0.09600
Br933      Br  0.63109841  0.08509413  0.53478680    -0.05900
Br934      Br  0.62370872  0.20255107  0.54869725    -0.02900
Br935      Br  0.70702173  0.09852032  0.47453268     0.00000
Br936      Br  0.59647510  0.14121673  0.47591814    -0.04400
C937        C  0.37678199  0.71439379  0.19614307    -0.11800
C938        C  0.39012817  0.70378525  0.21458613     0.03700
C939        C  0.39054580  0.71426304  0.23719371    -0.12300
C940        C  0.37777145  0.73527441  0.24171711     0.18500
C941        C  0.36498786  0.74625817  0.22311108    -0.09400
C942        C  0.36470339  0.73586971  0.20045394    -0.02300
H943        H  0.40067240  0.70589670  0.25136677     0.05100
C944        C  0.37718344  0.74500223  0.26613518     0.20500
H945        H  0.35442682  0.74417880  0.18635374     0.10200
C946        C  0.38947586  0.76615669  0.27133151    -0.15700
C947        C  0.38824570  0.77626434  0.29409560     0.03200
C948        C  0.37477808  0.76495085  0.31200134    -0.11000
C949        C  0.36302371  0.74351774  0.30695761    -0.01100
C950        C  0.36392895  0.73363579  0.28416179    -0.06200
H951        H  0.39985703  0.77489164  0.25758416     0.06200
H952        H  0.35247714  0.73482731  0.32061849     0.09600
Br953      Br  0.34663348  0.77467452  0.22826766    -0.05900
Br954      Br  0.40884601  0.67562212  0.20942169    -0.02900
Br955      Br  0.40592923  0.80489515  0.30022438     0.00000
Br956      Br  0.34564791  0.70538874  0.27813550    -0.04400
C957        C  0.30339487  0.71070973  0.12397881    -0.11800
C958        C  0.28630378  0.70659797  0.14198196     0.03700
C959        C  0.26334914  0.71576171  0.13952004    -0.12300
C960        C  0.25694098  0.72932744  0.11954039     0.18500
C961        C  0.27400259  0.73385173  0.10169815    -0.09400
C962        C  0.29702914  0.72447068  0.10399269    -0.02300
H963        H  0.25047969  0.71274492  0.15360678     0.05100
C964        C  0.23296095  0.74014068  0.11922353     0.20500
H965        H  0.31000666  0.72795629  0.09011793     0.10200
C966        C  0.22742936  0.75673645  0.13699491    -0.15700
C967        C  0.20433657  0.76547553  0.13963421     0.03200
C968        C  0.18617407  0.75786288  0.12393580    -0.11000
C969        C  0.19176010  0.74130439  0.10599483    -0.01100
C970        C  0.21493365  0.73232741  0.10362793    -0.06200
H971        H  0.24108297  0.76232439  0.14944900     0.06200
H972        H  0.17803348  0.73517106  0.09390119     0.09600
Br973      Br  0.26708702  0.75358359  0.07459191    -0.05900
Br974      Br  0.29352829  0.69044104  0.17134743    -0.02900
Br975      Br  0.19866859  0.78596438  0.16650070     0.00000
Br976      Br  0.22071949  0.70843292  0.07989159    -0.04400
C977        C  0.72017026  0.28914765  0.12574905    -0.11800
C978        C  0.71465853  0.27231833  0.14372693     0.03700
C979        C  0.72547457  0.24992745  0.14340076    -0.12300
C980        C  0.74221702  0.24414427  0.12588552     0.18500
C981        C  0.74801370  0.26084349  0.10815341    -0.09400
C982        C  0.73686064  0.28308464  0.10806850    -0.02300
H983        H  0.72135256  0.23715145  0.15731074     0.05100
C984        C  0.75382447  0.22072338  0.12692594     0.20500
H985        H  0.74164210  0.29586052  0.09438999     0.10200
C986        C  0.74572801  0.20253434  0.11199474    -0.15700
C987        C  0.75541437  0.17963268  0.11342282     0.03200
C988        C  0.77375307  0.17475647  0.13013466    -0.11000
C989        C  0.78192450  0.19332153  0.14485897    -0.01100
C990        C  0.77203200  0.21609846  0.14343800    -0.06200
H991        H  0.73161869  0.20616458  0.09929819     0.06200
H992        H  0.79587157  0.19009764  0.15780903     0.09600
Br993      Br  0.77199258  0.25452514  0.08463160    -0.05900
Br994      Br  0.69462729  0.27922986  0.17062220    -0.02900
Br995      Br  0.74290012  0.15652749  0.09147844     0.00000
Br996      Br  0.78383753  0.24040728  0.16437784    -0.04400
C997        C  0.72972692  0.35779197  0.19504013    -0.11800
C998        C  0.75077287  0.34442937  0.19839950     0.03700
C999        C  0.76107903  0.34305645  0.22107874    -0.12300
C1000       C  0.75062443  0.35482955  0.24044602     0.18500
C1001       C  0.72973250  0.36825636  0.23703860    -0.09400
C1002       C  0.71931143  0.36945909  0.21448858    -0.02300
H1003       H  0.77708121  0.33256068  0.22369778     0.05100
C1004       C  0.76155024  0.35306420  0.26421329     0.20500
H1005       H  0.70309286  0.37967637  0.21207989     0.10200
C1006       C  0.77921723  0.36947480  0.27067664    -0.15700
C1007       C  0.78836296  0.36969981  0.29385642     0.03200
C1008       C  0.77948280  0.35353477  0.31088785    -0.11000
C1009       C  0.76213453  0.33685909  0.30429399    -0.01100
C1010       C  0.75335342  0.33632271  0.28101343    -0.06200
H1011       H  0.78551426  0.38243075  0.25779895     0.06200
H1012       H  0.75557001  0.32410204  0.31724405     0.09600
Br1013     Br  0.71500326  0.38537192  0.26268926    -0.05900
Br1014     Br  0.76507678  0.32636093  0.17311352    -0.02900
Br1015     Br  0.81193013  0.39315469  0.30179251     0.00000
Br1016     Br  0.73029496  0.31245883  0.27289131    -0.04400
C1017       C  0.68754223  0.60336023  0.22818164    -0.11800
C1018       C  0.70346511  0.62272954  0.22631857     0.03700
C1019       C  0.72590750  0.62122877  0.23692364    -0.12300
C1020       C  0.73310490  0.60042856  0.24878279     0.18500
C1021       C  0.71758329  0.58077584  0.24989148    -0.09400
C1022       C  0.69483430  0.58249028  0.23994574    -0.02300
H1023       H  0.73777592  0.63644289  0.23609222     0.05100
C1024       C  0.75658025  0.59994049  0.26051027     0.20500
H1025       H  0.68293372  0.56732964  0.24105414     0.10200
C1026       C  0.75773477  0.59856897  0.28544105    -0.15700
C1027       C  0.77965169  0.59892564  0.29727218     0.03200
C1028       C  0.80093281  0.60094446  0.28397197    -0.11000
C1029       C  0.79960783  0.60206428  0.25895790    -0.01100
C1030       C  0.77772645  0.60161340  0.24722375    -0.06200
H1031       H  0.74145398  0.59724856  0.29573725     0.06200
H1032       H  0.81568517  0.60361602  0.24838283     0.09600
Br1033     Br  0.72708494  0.55097929  0.26382954    -0.05900
Br1034     Br  0.69526034  0.65213103  0.21073134    -0.02900
Br1035     Br  0.77909926  0.59543087  0.33133114     0.00000
Br1036     Br  0.77770327  0.60284626  0.21302348    -0.04400
C1037       C  0.61317497  0.78805802  0.28398960    -0.11800
C1038       C  0.62817974  0.78218835  0.26481322     0.03700
C1039       C  0.62720967  0.75937620  0.25497380    -0.12300
C1040       C  0.61123178  0.74232710  0.26386792     0.18500
C1041       C  0.59620043  0.74823258  0.28307574    -0.09400
C1042       C  0.59739417  0.77099130  0.29312505    -0.02300
H1043       H  0.63909287  0.75482176  0.24045757     0.05100
C1044       C  0.61106474  0.71832366  0.25322765     0.20500
H1045       H  0.58585257  0.77546472  0.30794215     0.10200
C1046       C  0.61935673  0.69894739  0.26668865    -0.15700
C1047       C  0.62052578  0.67613277  0.25679553     0.03200
C1048       C  0.61336492  0.67254292  0.23294822    -0.11000
C1049       C  0.60514885  0.69199680  0.21950813    -0.01100
C1050       C  0.60384898  0.71474412  0.22948834    -0.06200
H1051       H  0.62537382  0.70170559  0.28482866     0.06200
H1052       H  0.59956296  0.68946075  0.20120062     0.09600
Br1053     Br  0.57335785  0.72608359  0.29562254    -0.05900
Br1054     Br  0.65117213  0.80431293  0.25244187    -0.02900
Br1055     Br  0.63384433  0.65114190  0.27610779     0.00000
Br1056     Br  0.59163696  0.74026425  0.21020653    -0.04400
C1057       C  0.55173728  0.61357190  0.17413313    -0.11800
C1058       C  0.53076087  0.60700970  0.18664494     0.03700
C1059       C  0.50843171  0.61309323  0.17735545    -0.12300
C1060       C  0.50642892  0.62577230  0.15593697     0.18500
C1061       C  0.52704345  0.63156013  0.14304235    -0.09400
C1062       C  0.54934389  0.62526100  0.15199765    -0.02300
H1063       H  0.49252481  0.60882440  0.18742726     0.05100
C1064       C  0.48304575  0.63545812  0.14900522     0.20500
H1065       H  0.56492578  0.63039037  0.14183823     0.10200
C1066       C  0.47914798  0.65996487  0.15171785    -0.15700
C1067       C  0.45689374  0.66997060  0.14702260     0.03200
C1068       C  0.43802403  0.65530023  0.13930408    -0.11000
C1069       C  0.44197992  0.63068552  0.13652494    -0.01100
C1070       C  0.46433953  0.62071192  0.14129401    -0.06200
H1071       H  0.49338984  0.67127764  0.15818008     0.06200
H1072       H  0.42762849  0.61917812  0.13068583     0.09600
Br1073     Br  0.52565181  0.64886293  0.11352545    -0.05900
Br1074     Br  0.53061260  0.59086843  0.21688637    -0.02900
Br1075     Br  0.45296147  0.70329958  0.15377981     0.00000
Br1076     Br  0.46868299  0.58706068  0.13692103    -0.04400
C1077       C  0.67405673  0.42715884  0.13861573    -0.11800
C1078       C  0.69007725  0.44564761  0.14451287     0.03700
C1079       C  0.68131239  0.46843264  0.14935949    -0.12300
C1080       C  0.65684548  0.47316962  0.14824245     0.18500
C1081       C  0.64097492  0.45513512  0.14132115    -0.09400
C1082       C  0.64961205  0.43226146  0.13674945    -0.02300
H1083       H  0.69352374  0.48234465  0.15481847     0.05100
C1084       C  0.64804135  0.49637292  0.15650016     0.20500
H1085       H  0.63713094  0.41833214  0.13196436     0.10200
C1086       C  0.64162177  0.51389422  0.13989367    -0.15700
C1087       C  0.63370937  0.53628979  0.14748057     0.03200
C1088       C  0.63210390  0.54121784  0.17213358    -0.11000
C1089       C  0.63807903  0.52328718  0.18860980    -0.01100
C1090       C  0.64611622  0.50108826  0.18099081    -0.06200
H1091       H  0.64288736  0.51014121  0.12100305     0.06200
H1092       H  0.63720118  0.52673795  0.20758328     0.09600
Br1093     Br  0.60734502  0.46079307  0.13890245    -0.05900
Br1094     Br  0.72372538  0.44066617  0.14834796    -0.02900
Br1095     Br  0.62467888  0.55883746  0.12332886     0.00000
Br1096     Br  0.65448444  0.47779572  0.20468510    -0.04400
C1097       C  0.18086665  0.35744147  0.73379894    -0.11800
C1098       C  0.19999529  0.34219281  0.72755792     0.03700
C1099       C  0.22181783  0.34408911  0.73943749    -0.12300
C1100       C  0.22525501  0.36106118  0.75736371     0.18500
C1101       C  0.20657356  0.37662054  0.76332728    -0.09400
C1102       C  0.18454844  0.37460493  0.75173724    -0.02300
H1103       H  0.23621602  0.33208244  0.73479354     0.05100
C1104       C  0.24854279  0.36188419  0.76957967     0.20500
H1105       H  0.17027800  0.38660158  0.75671935     0.10200
C1106       C  0.26600838  0.37781179  0.76156335    -0.15700
C1107       C  0.28914282  0.37713553  0.77090203     0.03200
C1108       C  0.29522569  0.35978095  0.78821449    -0.11000
C1109       C  0.27724165  0.34466661  0.79698645    -0.01100
C1110       C  0.25407815  0.34570040  0.78791198    -0.06200
H1111       H  0.26167045  0.39064478  0.74777587     0.06200
H1112       H  0.28128650  0.33154881  0.81060376     0.09600
Br1113     Br  0.21039749  0.40062010  0.78732797    -0.05900
Br1114     Br  0.19754893  0.31748274  0.70401787    -0.02900
Br1115     Br  0.31100305  0.40112892  0.76000553     0.00000
Br1116     Br  0.23056132  0.32457921  0.80094017    -0.04400
C1117       C  0.36890884  0.17017866  0.72829553    -0.11800
C1118       C  0.36729715  0.19076864  0.71373466     0.03700
C1119       C  0.36751805  0.21338253  0.72421972    -0.12300
C1120       C  0.36939159  0.21596319  0.74898488     0.18500
C1121       C  0.37133887  0.19557778  0.76345029    -0.09400
C1122       C  0.37119734  0.17301696  0.75309183    -0.02300
H1123       H  0.36597406  0.22906387  0.71302706     0.05100
C1124       C  0.36825864  0.23993737  0.75963888     0.20500
H1125       H  0.37240499  0.15758511  0.76466496     0.10200
C1126       C  0.34860554  0.24583984  0.77387678    -0.15700
C1127       C  0.34724599  0.26793145  0.78521024     0.03200
C1128       C  0.36578418  0.28462649  0.78218809    -0.11000
C1129       C  0.38509446  0.27896298  0.76731272    -0.01100
C1130       C  0.38649108  0.25678310  0.75611340    -0.06200
H1131       H  0.33427498  0.23311397  0.77622140     0.06200
H1132       H  0.39938202  0.29169278  0.76472315     0.09600
Br1133     Br  0.37430711  0.19759265  0.79748868    -0.05900
Br1134     Br  0.36533609  0.18969096  0.67955420    -0.02900
Br1135     Br  0.31899556  0.27469412  0.80329660     0.00000
Br1136     Br  0.41401350  0.25004969  0.73697433    -0.04400
C1137       C  0.26697081  0.66745863  0.89122961    -0.11800
C1138       C  0.24298462  0.67079245  0.89857284     0.03700
C1139       C  0.23337829  0.69381836  0.89948818    -0.12300
C1140       C  0.24707812  0.71372674  0.89327421     0.18500
C1141       C  0.27096629  0.71062765  0.88660139    -0.09400
C1142       C  0.28068762  0.68775026  0.88566186    -0.02300
H1143       H  0.21493024  0.69621566  0.90465439     0.05100
C1144       C  0.23584020  0.73748423  0.89257294     0.20500
H1145       H  0.29908475  0.68592302  0.88014096     0.10200
C1146       C  0.24102288  0.75414657  0.91041860    -0.15700
C1147       C  0.23129860  0.77713053  0.90961293     0.03200
C1148       C  0.21604118  0.78364990  0.89063165    -0.11000
C1149       C  0.21053626  0.76665103  0.87310705    -0.01100
C1150       C  0.22041049  0.74381086  0.87387271    -0.06200
H1151       H  0.25274711  0.74924667  0.92496804     0.06200
H1152       H  0.19899155  0.77133314  0.85835304     0.09600
Br1153     Br  0.29068645  0.73703709  0.87746369    -0.05900
Br1154     Br  0.22173171  0.64526902  0.90698560    -0.02900
Br1155     Br  0.23864312  0.79821575  0.93552113     0.00000
Br1156     Br  0.21328006  0.72219202  0.84836895    -0.04400
C1157       C  0.21296728  0.59590343  0.70176301    -0.11800
C1158       C  0.20711812  0.61302818  0.71933329     0.03700
C1159       C  0.21794706  0.61196968  0.74179710    -0.12300
C1160       C  0.23463931  0.59418425  0.74722694     0.18500
C1161       C  0.24022055  0.57691098  0.72999053    -0.09400
C1162       C  0.22949708  0.57790802  0.70749686    -0.02300
H1163       H  0.21371056  0.62541299  0.75498501     0.05100
C1164       C  0.24670140  0.59452753  0.77065756     0.20500
H1165       H  0.23426609  0.56460206  0.69435974     0.10200
C1166       C  0.23999105  0.57814576  0.78827211    -0.15700
C1167       C  0.25081146  0.57831118  0.81077229     0.03200
C1168       C  0.26848460  0.59553160  0.81613221    -0.11000
C1169       C  0.27551408  0.61152762  0.79809124    -0.01100
C1170       C  0.26486159  0.61105869  0.77554202    -0.06200
H1171       H  0.22634396  0.56504691  0.78441222     0.06200
H1172       H  0.28920339  0.62468137  0.80156208     0.09600
Br1173     Br  0.26311775  0.55224812  0.73611923    -0.05900
Br1174     Br  0.18603726  0.63940844  0.71352000    -0.02900
Br1175     Br  0.24147342  0.55356241  0.83256248     0.00000
Br1176     Br  0.27600161  0.63291315  0.75166177    -0.04400
C1177       C  0.32778813  0.61031754  0.95005492    -0.11800
C1178       C  0.35246165  0.61050730  0.95510146     0.03700
C1179       C  0.36046184  0.61702669  0.97783499    -0.12300
C1180       C  0.34426386  0.62320445  0.99580657     0.18500
C1181       C  0.31966863  0.62250730  0.99098078    -0.09400
C1182       C  0.31164761  0.61589096  0.96837215    -0.02300
H1183       H  0.37942453  0.61745827  0.98148293     0.05100
C1184       C  0.35317547  0.63193114  0.01897684     0.20500
H1185       H  0.29268122  0.61609831  0.96483563     0.10200
C1186       C  0.36327013  0.65469757  0.02018083    -0.15700
C1187       C  0.36931822  0.66489500  0.04210171     0.03200
C1188       C  0.36454244  0.65233720  0.06358454    -0.11000
C1189       C  0.35584162  0.62883280  0.06200075    -0.01100
C1190       C  0.35051306  0.61853016  0.03997288    -0.06200
H1191       H  0.36595422  0.66483720  0.00393374     0.06200
H1192       H  0.35283739  0.61838951  0.07798341     0.09600
Br1193     Br  0.29639418  0.63210165  0.01415882    -0.05900
Br1194     Br  0.37602726  0.60122748  0.93213693    -0.02900
Br1195     Br  0.38379109  0.69593712  0.04066121     0.00000
Br1196     Br  0.33983748  0.58605967  0.03930970    -0.04400
C1197       C  0.33026010  0.53634170  0.87274498    -0.11800
C1198       C  0.33090520  0.51852203  0.89044160     0.03700
C1199       C  0.33900657  0.49568421  0.88471132    -0.12300
C1200       C  0.34607345  0.49012295  0.86138656     0.18500
C1201       C  0.34547487  0.50798570  0.84369272    -0.09400
C1202       C  0.33812931  0.53103005  0.84962699    -0.02300
H1203       H  0.33912017  0.48197485  0.89833736     0.05100
C1204       C  0.35108508  0.46501632  0.85539501     0.20500
H1205       H  0.33717909  0.54448470  0.83578281     0.10200
C1206       C  0.33249326  0.44845445  0.85754651    -0.15700
C1207       C  0.33571462  0.42474445  0.85084577     0.03200
C1208       C  0.35795438  0.41727808  0.84199518    -0.11000
C1209       C  0.37672227  0.43367899  0.84023780    -0.01100
C1210       C  0.37353353  0.45740631  0.84709841    -0.06200
H1211       H  0.31513788  0.45421085  0.86374140     0.06200
H1212       H  0.39386589  0.42802309  0.83338122     0.09600
Br1213     Br  0.35179529  0.50129025  0.81072446    -0.05900
Br1214     Br  0.32100881  0.52444345  0.92263792    -0.02900
Br1215     Br  0.30848636  0.40400899  0.85177854     0.00000
Br1216     Br  0.40035738  0.47851101  0.84500858    -0.04400
C1217       C  0.68563663  0.26394170  0.88836902    -0.11800
C1218       C  0.70433272  0.27279445  0.87392506     0.03700
C1219       C  0.72713328  0.26291530  0.87585893    -0.12300
C1220       C  0.73168557  0.24421460  0.89178152     0.18500
C1221       C  0.71325077  0.23544527  0.90623274    -0.09400
C1222       C  0.69050282  0.24534761  0.90452233    -0.02300
H1223       H  0.74127153  0.26938821  0.86440952     0.05100
C1224       C  0.75532557  0.23288375  0.89173874     0.20500
H1225       H  0.67650230  0.23827218  0.91577487     0.10200
C1226       C  0.77231438  0.23942797  0.90882170    -0.15700
C1227       C  0.79495560  0.22887942  0.90898299     0.03200
C1228       C  0.80079892  0.21159092  0.89162859    -0.11000
C1229       C  0.78347724  0.20501675  0.87475576    -0.01100
C1230       C  0.76094591  0.21545482  0.87473125    -0.06200
H1231       H  0.76785098  0.25262769  0.92216883     0.06200
H1232       H  0.78750486  0.19177490  0.86130262     0.09600
Br1233     Br  0.71812280  0.20929194  0.92776672    -0.05900
Br1234     Br  0.69989383  0.29688539  0.84992941    -0.02900
Br1235     Br  0.81629062  0.23774008  0.93418343     0.00000
Br1236     Br  0.73823126  0.20511073  0.85135266    -0.04400
C1237       C  0.61326514  0.26092481  0.81578430    -0.11800
C1238       C  0.62162393  0.27312120  0.79521531     0.03700
C1239       C  0.62085096  0.26190226  0.77294241    -0.12300
C1240       C  0.61204655  0.23867673  0.77055593     0.18500
C1241       C  0.60392607  0.22643747  0.79081674    -0.09400
C1242       C  0.60447042  0.23754863  0.81306106    -0.02300
H1243       H  0.62728389  0.27130748  0.75733884     0.05100
C1244       C  0.61150362  0.22741939  0.74679374     0.20500
H1245       H  0.59798900  0.22765830  0.82832557     0.10200
C1246       C  0.62778845  0.20925417  0.74150610    -0.15700
C1247       C  0.62770420  0.19809292  0.71921983     0.03200
C1248       C  0.61086298  0.20506899  0.70172418    -0.11000
C1249       C  0.59469250  0.22343512  0.70716665    -0.01100
C1250       C  0.59492717  0.23457692  0.72942529    -0.06200
H1251       H  0.64079050  0.20390809  0.75475303     0.06200
H1252       H  0.58169481  0.22914620  0.69407236     0.09600
Br1253     Br  0.59153537  0.19461572  0.78887677    -0.05900
Br1254     Br  0.63479636  0.30474653  0.79562126    -0.02900
Br1255     Br  0.65212675  0.17472886  0.71370204     0.00000
Br1256     Br  0.57195903  0.25916240  0.73551523    -0.04400
C1257       C  0.66232235  0.35323985  0.06520350    -0.11800
C1258       C  0.67147385  0.36299126  0.04377041     0.03700
C1259       C  0.66094798  0.35700828  0.02199447    -0.12300
C1260       C  0.64129629  0.34166279  0.02107898     0.18500
C1261       C  0.63119858  0.33323396  0.04236100    -0.09400
C1262       C  0.64161779  0.33910710  0.06413506    -0.02300
H1263       H  0.66869233  0.36364128  0.00558051     0.05100
C1264       C  0.63371513  0.33217987  0.99782918     0.20500
H1265       H  0.63395103  0.33168421  0.08022625     0.10200
C1266       C  0.63937604  0.30847830  0.99241555    -0.15700
C1267       C  0.63472502  0.29912159  0.96988336     0.03200
C1268       C  0.62416815  0.31367318  0.95225473    -0.11000
C1269       C  0.61820821  0.33736178  0.95780969    -0.01100
C1270       C  0.62280834  0.34663747  0.98048303    -0.06200
H1271       H  0.64817890  0.29742423  0.00560384     0.06200
H1272       H  0.61001895  0.34869020  0.94445749     0.09600
Br1273     Br  0.60362439  0.31302753  0.04247245    -0.05900
Br1274     Br  0.69815564  0.38440557  0.04248830    -0.02900
Br1275     Br  0.64540748  0.26715377  0.96375688     0.00000
Br1276     Br  0.61375158  0.37891941  0.98715083    -0.04400
C1277       C  0.54740963  0.31188098  0.87940649    -0.11800
C1278       C  0.54110695  0.33630770  0.87890522     0.03700
C1279       C  0.51772408  0.34294663  0.87338077    -0.12300
C1280       C  0.50034985  0.32562278  0.86898450     0.18500
C1281       C  0.50613099  0.30135726  0.87118111    -0.09400
C1282       C  0.52950335  0.29464796  0.87631692    -0.02300
H1283       H  0.51314838  0.36167327  0.87210479     0.05100
C1284       C  0.47693005  0.33288029  0.85978978     0.20500
H1285       H  0.53382473  0.27583656  0.87693488     0.10200
C1286       C  0.47437776  0.33617221  0.83521297    -0.15700
C1287       C  0.45204748  0.34052959  0.82513415     0.03200
C1288       C  0.43163290  0.34164842  0.83994096    -0.11000
C1289       C  0.43453916  0.33901129  0.86476500    -0.01100
C1290       C  0.45697756  0.33472879  0.87470895    -0.06200
H1291       H  0.48980301  0.33460110  0.82372242     0.06200
H1292       H  0.41929423  0.34011542  0.87653270     0.09600
Br1293     Br  0.48288396  0.27680480  0.86607730    -0.05900
Br1294     Br  0.56314333  0.36142146  0.88632223    -0.02900
Br1295     Br  0.45106105  0.34307812  0.79098544     0.00000
Br1296     Br  0.45966936  0.33107189  0.90860453    -0.04400
loop_ 
_geom_bond_atom_site_label_1 
_geom_bond_atom_site_label_2 
_geom_bond_distance 
_geom_bond_site_symmetry_2 
_ccdc_geom_bond_type 
O1           Cu9   2.005       .  S
O1           C11   1.279       .  A
O2           Cu9   1.999       .  S
O2           C12   1.276       .  A
O3           Cu9   2.000       .  S
O3           C13   1.277       .  A
O4           Cu9   1.996       .  S
O4           C14   1.277       .  A
O5          Cu10   2.004       .  S
O5           C14   1.276       .  A
O6          Cu10   2.001       .  S
O6           C13   1.277       .  A
O7          Cu10   2.005       .  S
O7           C12   1.277       .  A
O8          Cu10   2.011       .  S
O8           C11   1.276       .  A
Cu9         Cu10   2.368       .  S
C11        C1237   1.491       .  S
C12        C1268   1.472       .  S
C13        C1277   1.478       .  S
C14        C1217   1.479       .  S
O15         Cu23   2.004       .  S
O15          C25   1.277       .  A
O16         Cu23   2.006       .  S
O16          C26   1.276       .  A
O17         Cu23   2.010       .  S
O17          C27   1.277       .  A
O18         Cu23   2.005       .  S
O18          C28   1.278       .  A
O19         Cu24   2.017       .  S
O19          C28   1.278       .  A
O20         Cu24   2.015       .  S
O20          C27   1.279       .  A
O21         Cu24   2.004       .  S
O21          C26   1.279       .  A
O22         Cu24   2.003       .  S
O22          C25   1.276       .  A
Cu23        Cu24   2.368       .  S
C25        C1197   1.469       .  S
C26        C1137   1.489       .  S
C27        C1168   1.488       .  S
C28        C1177   1.481       .  S
O29         Cu37   1.995       .  S
O29          C39   1.276       .  A
O30         Cu37   1.988       .  S
O30          C40   1.275       .  A
O31         Cu37   2.004       .  S
O31          C41   1.277       .  A
O32         Cu37   2.013       .  S
O32          C42   1.278       .  A
O33         Cu38   2.001       .  S
O33          C42   1.277       .  A
O34         Cu38   2.005       .  S
O34          C41   1.278       .  A
O35         Cu38   2.001       .  S
O35          C40   1.277       .  A
O36         Cu38   2.006       .  S
O36          C39   1.278       .  A
Cu37        Cu38   2.372       .  S
C39        C1128   1.471       .  S
C40        C1208   1.464       .  S
C41        C1288   1.483       .  S
C42        C1108   1.483       .  S
O43         Cu51   2.002       .  S
O43          C53   1.276       .  A
O44         Cu51   2.002       .  S
O44          C54   1.277       .  A
O45         Cu51   1.995       .  S
O45          C55   1.276       .  A
O46         Cu51   1.994       .  S
O46          C56   1.277       .  A
O47         Cu52   2.010       .  S
O47          C56   1.277       .  A
O48         Cu52   2.004       .  S
O48          C55   1.278       .  A
O49         Cu52   2.000       .  S
O49          C54   1.276       .  A
O50         Cu52   1.993       .  S
O50          C53   1.277       .  A
Cu51        Cu52   2.371       .  S
C53        C1088   1.475       .  S
C54        C1048   1.471       .  S
C55        C1017   1.470       .  S
C56        C1057   1.487       .  S
O57         Cu65   1.997       .  S
O57          C67   1.277       .  A
O58         Cu65   2.001       .  S
O58          C68   1.277       .  A
O59         Cu65   1.998       .  S
O59          C69   1.276       .  A
O60         Cu65   1.995       .  S
O60          C70   1.277       .  A
O61         Cu66   2.008       .  S
O61          C70   1.277       .  A
O62         Cu66   2.009       .  S
O62          C69   1.277       .  A
O63         Cu66   1.991       .  S
O63          C68   1.276       .  A
O64         Cu66   2.000       .  S
O64          C67   1.276       .  A
Cu65        Cu66   2.372       .  S
C67        C1077   1.472       .  S
C68         C977   1.474       .  S
C69         C997   1.468       .  S
C70        C1257   1.484       .  S
O71         Cu79   2.011       .  S
O71          C81   1.280       .  A
O72         Cu79   2.015       .  S
O72          C82   1.279       .  A
O73         Cu79   1.997       .  S
O73          C83   1.276       .  A
O74         Cu79   1.992       .  S
O74          C84   1.275       .  A
O75         Cu80   2.010       .  S
O75          C84   1.279       .  A
O76         Cu80   2.011       .  S
O76          C83   1.278       .  A
O77         Cu80   2.006       .  S
O77          C82   1.276       .  A
O78         Cu80   2.000       .  S
O78          C81   1.275       .  A
Cu79        Cu80   2.371       .  S
C81        C1188   1.489       .  S
C82         C937   1.471       .  S
C83         C957   1.476       .  S
C84        C1068   1.473       .  S
O85         Cu93   2.012       .  S
O85          C95   1.279       .  A
O86         Cu93   2.006       .  S
O86          C96   1.277       .  A
O87         Cu93   2.007       .  S
O87          C97   1.277       .  A
O88         Cu93   2.005       .  S
O88          C98   1.278       .  A
O89         Cu94   2.008       .  S
O89          C98   1.277       .  A
O90         Cu94   2.007       .  S
O90          C97   1.278       .  A
O91         Cu94   1.992       .  S
O91          C96   1.277       .  A
O92         Cu94   1.998       .  S
O92          C95   1.275       .  A
Cu93        Cu94   2.368       .  S
C95         C897   1.479       .  S
C96         C877   1.482       .  S
C97        C1248   1.483       .  S
C98         C917   1.483       .  S
O99        Cu107   2.010       .  S
O99         C109   1.277       .  A
O100       Cu107   2.014       .  S
O100        C110   1.278       .  A
O101       Cu107   2.015       .  S
O101        C111   1.279       .  A
O102       Cu107   2.012       .  S
O102        C112   1.278       .  A
O103       Cu108   2.004       .  S
O103        C112   1.277       .  A
O104       Cu108   2.001       .  S
O104        C111   1.276       .  A
O105       Cu108   2.005       .  S
O105        C110   1.278       .  A
O106       Cu108   2.005       .  S
O106        C109   1.278       .  A
Cu107      Cu108   2.369       .  S
C109        C928   1.490       .  S
C110        C848   1.477       .  S
C111        C828   1.480       .  S
C112        C857   1.478       .  S
O113       Cu121   1.992       .  S
O113        C123   1.275       .  A
O114       Cu121   1.996       .  S
O114        C124   1.277       .  A
O115       Cu121   2.009       .  S
O115        C125   1.278       .  A
O116       Cu121   2.006       .  S
O116        C126   1.279       .  A
O117       Cu122   2.002       .  S
O117        C126   1.275       .  A
O118       Cu122   2.002       .  S
O118        C125   1.277       .  A
O119       Cu122   2.001       .  S
O119        C124   1.276       .  A
O120       Cu122   2.003       .  S
O120        C123   1.278       .  A
Cu121      Cu122   2.369       .  S
C123        C797   1.473       .  S
C124       C1117   1.480       .  S
C125        C777   1.475       .  S
C126        C908   1.489       .  S
O127       Cu135   1.996       .  S
O127        C137   1.276       .  A
O128       Cu135   1.990       .  S
O128        C138   1.274       .  A
O129       Cu135   2.004       .  S
O129        C139   1.278       .  A
O130       Cu135   2.010       .  S
O130        C140   1.278       .  A
O131       Cu136   2.004       .  S
O131        C140   1.276       .  A
O132       Cu136   1.996       .  S
O132        C139   1.276       .  A
O133       Cu136   2.009       .  S
O133        C138   1.279       .  A
O134       Cu136   2.002       .  S
O134        C137   1.278       .  A
Cu135      Cu136   2.370       .  S
C137        C717   1.473       .  S
C138        C757   1.485       .  S
C139        C808   1.476       .  S
C140        C737   1.469       .  S
O141       Cu149   1.989       .  S
O141        C151   1.275       .  A
O142       Cu149   1.992       .  S
O142        C152   1.276       .  A
O143       Cu149   2.005       .  S
O143        C153   1.277       .  A
O144       Cu149   2.010       .  S
O144        C154   1.278       .  A
O145       Cu150   2.002       .  S
O145        C154   1.276       .  A
O146       Cu150   1.997       .  S
O146        C153   1.275       .  A
O147       Cu150   2.012       .  S
O147        C152   1.278       .  A
O148       Cu150   2.010       .  S
O148        C151   1.279       .  A
Cu149      Cu150   2.374       .  S
C151        C697   1.474       .  S
C152        C677   1.480       .  S
C153       C1037   1.462       .  S
C154        C868   1.470       .  S
O155       Cu163   2.006       .  S
O155        C165   1.276       .  A
O156       Cu163   2.006       .  S
O156        C166   1.277       .  A
O157       Cu163   2.020       .  S
O157        C167   1.279       .  A
O158       Cu163   2.009       .  S
O158        C168   1.279       .  A
O159       Cu164   1.992       .  S
O159        C168   1.274       .  A
O160       Cu164   1.988       .  S
O160        C167   1.276       .  A
O161       Cu164   1.998       .  S
O161        C166   1.276       .  A
O162       Cu164   1.994       .  S
O162        C165   1.276       .  A
Cu163      Cu164   2.371       .  S
C165        C768   1.466       .  S
C166        C948   1.466       .  S
C167        C668   1.486       .  S
C168        C708   1.486       .  S
O169       Cu177   2.011       .  S
O169        C179   1.277       .  A
O170       Cu177   2.018       .  S
O170        C180   1.279       .  A
O171       Cu177   1.993       .  S
O171        C181   1.277       .  A
O172       Cu177   1.987       .  S
O172        C182   1.274       .  A
O173       Cu178   1.998       .  S
O173        C182   1.278       .  A
O174       Cu178   2.002       .  S
O174        C181   1.276       .  A
O175       Cu178   1.985       .  S
O175        C180   1.274       .  A
O176       Cu178   1.984       .  S
O176        C179   1.275       .  A
Cu177      Cu178   2.367       .  S
C179        C637   1.484       .  S
C180        C968   1.477       .  S
C181        C608   1.482       .  S
C182        C628   1.475       .  S
O183       Cu191   2.005       .  S
O183        C193   1.278       .  A
O184       Cu191   2.005       .  S
O184        C194   1.277       .  A
O185       Cu191   2.007       .  S
O185        C195   1.279       .  A
O186       Cu191   2.009       .  S
O186        C196   1.277       .  A
O187       Cu192   1.996       .  S
O187        C196   1.277       .  A
O188       Cu192   1.993       .  S
O188        C195   1.274       .  A
O189       Cu192   1.988       .  S
O189        C194   1.275       .  A
O190       Cu192   1.995       .  S
O190        C193   1.275       .  A
Cu191      Cu192   2.372       .  S
C193        C557   1.469       .  S
C194        C577   1.464       .  S
C195        C648   1.483       .  S
C196        C688   1.479       .  S
O197       Cu205   2.010       .  S
O197        C207   1.278       .  A
O198       Cu205   2.007       .  S
O198        C208   1.277       .  A
O199       Cu205   1.993       .  S
O199        C209   1.277       .  A
O200       Cu205   1.999       .  S
O200        C210   1.276       .  A
O201       Cu206   1.995       .  S
O201        C210   1.277       .  A
O202       Cu206   1.994       .  S
O202        C209   1.276       .  A
O203       Cu206   1.997       .  S
O203        C208   1.277       .  A
O204       Cu206   2.004       .  S
O204        C207   1.278       .  A
Cu205      Cu206   2.372       .  S
C207       C1148   1.479       .  S
C208        C537   1.478       .  S
C209        C617   1.467       .  S
C210        C728   1.476       .  S
O211       Cu219   1.999       .  S
O211        C221   1.277       .  A
O212       Cu219   2.000       .  S
O212        C222   1.277       .  A
O213       Cu219   2.012       .  S
O213        C223   1.280       .  A
O214       Cu219   2.013       .  S
O214        C224   1.278       .  A
O215       Cu220   2.001       .  S
O215        C224   1.276       .  A
O216       Cu220   1.992       .  S
O216        C223   1.274       .  A
O217       Cu220   2.008       .  S
O217        C222   1.277       .  A
O218       Cu220   2.016       .  S
O218        C221   1.278       .  A
Cu219      Cu220   2.370       .  S
C221        C788   1.484       .  S
C222        C528   1.471       .  S
C223        C548   1.486       .  S
C224        C497   1.472       .  S
O225       Cu233   1.999       .  S
O225        C235   1.276       .  A
O226       Cu233   2.003       .  S
O226        C236   1.277       .  A
O227       Cu233   1.995       .  S
O227        C237   1.275       .  A
O228       Cu233   1.988       .  S
O228        C238   1.276       .  A
O229       Cu234   2.008       .  S
O229        C238   1.277       .  A
O230       Cu234   2.005       .  S
O230        C237   1.279       .  A
O231       Cu234   2.003       .  S
O231        C236   1.278       .  A
O232       Cu234   1.997       .  S
O232        C235   1.275       .  A
Cu233      Cu234   2.372       .  S
C235        C477   1.459       .  S
C236        C837   1.477       .  S
C237        C988   1.481       .  S
C238        C588   1.478       .  S
O239       Cu247   1.992       .  S
O239        C249   1.275       .  A
O240       Cu247   1.988       .  S
O240        C250   1.276       .  A
O241       Cu247   2.005       .  S
O241        C251   1.277       .  A
O242       Cu247   2.009       .  S
O242        C252   1.278       .  A
O243       Cu248   1.989       .  S
O243        C252   1.275       .  A
O244       Cu248   1.996       .  S
O244        C251   1.277       .  A
O245       Cu248   2.021       .  S
O245        C250   1.279       .  A
O246       Cu248   2.018       .  S
O246        C249   1.279       .  A
Cu247      Cu248   2.373       .  S
C249        C517   1.469       .  S
C250       C1228   1.480       .  S
C251        C468   1.478       .  S
C252        C488   1.472       .  S
O253       Cu261   2.014       .  S
O253        C263   1.278       .  A
O254       Cu261   2.003       .  S
O254        C264   1.276       .  A
O255       Cu261   2.014       .  S
O255        C265   1.278       .  A
O256       Cu261   2.016       .  S
O256        C266   1.278       .  A
O257       Cu262   2.003       .  S
O257        C266   1.276       .  A
O258       Cu262   2.000       .  S
O258        C265   1.277       .  A
O259       Cu262   2.004       .  S
O259        C264   1.278       .  A
O260       Cu262   2.007       .  S
O260        C263   1.278       .  A
Cu261      Cu262   2.371       .  S
C263       C1157   1.485       .  S
C264        C417   1.478       .  S
C265        C437   1.481       .  S
C266        C748   1.469       .  S
O267       Cu275   1.996       .  S
O267        C277   1.276       .  A
O268       Cu275   2.003       .  S
O268        C278   1.276       .  A
O269       Cu275   2.014       .  S
O269        C279   1.279       .  A
O270       Cu275   2.010       .  S
O270        C280   1.278       .  A
O271       Cu276   2.007       .  S
O271        C280   1.277       .  A
O272       Cu276   2.014       .  S
O272        C279   1.278       .  A
O273       Cu276   2.019       .  S
O273        C278   1.279       .  A
O274       Cu276   2.018       .  S
O274        C277   1.279       .  A
Cu275      Cu276   2.370       .  S
C277        C448   1.476       .  S
C278        C508   1.484       .  S
C279       C1097   1.487       .  S
C280        C397   1.475       .  S
O281       Cu289   1.991       .  S
O281        C291   1.275       .  A
O282       Cu289   1.993       .  S
O282        C292   1.276       .  A
O283       Cu289   1.993       .  S
O283        C293   1.275       .  A
O284       Cu289   1.994       .  S
O284        C294   1.276       .  A
O285       Cu290   2.012       .  S
O285        C294   1.278       .  A
O286       Cu290   1.999       .  S
O286        C293   1.278       .  A
O287       Cu290   2.005       .  S
O287        C292   1.277       .  A
O288       Cu290   2.007       .  S
O288        C291   1.279       .  A
Cu289      Cu290   2.372       .  S
C291        C377   1.479       .  S
C292        C657   1.470       .  S
C293        C597   1.473       .  S
C294        C428   1.477       .  S
O295       Cu303   1.995       .  S
O295        C305   1.277       .  A
O296       Cu303   1.986       .  S
O296        C306   1.275       .  A
O297       Cu303   2.003       .  S
O297        C307   1.277       .  A
O298       Cu303   2.005       .  S
O298        C308   1.277       .  A
O299       Cu304   2.009       .  S
O299        C308   1.278       .  A
O300       Cu304   2.009       .  S
O300        C307   1.277       .  A
O301       Cu304   2.012       .  S
O301        C306   1.279       .  A
O302       Cu304   2.008       .  S
O302        C305   1.277       .  A
Cu303      Cu304   2.375       .  S
C305        C457   1.472       .  S
C306        C368   1.472       .  S
C307        C408   1.469       .  S
C308        C888   1.476       .  S
O309       Cu317   1.983       .  S
O309        C319   1.274       .  A
O310       Cu317   1.986       .  S
O310        C320   1.276       .  A
O311       Cu317   2.008       .  S
O311        C321   1.279       .  A
O312       Cu317   2.011       .  S
O312        C322   1.279       .  A
O313       Cu318   2.002       .  S
O313        C322   1.276       .  A
O314       Cu318   2.002       .  S
O314        C321   1.275       .  A
O315       Cu318   2.009       .  S
O315        C320   1.278       .  A
O316       Cu318   2.007       .  S
O316        C319   1.277       .  A
Cu317      Cu318   2.369       .  S
C319        C388   1.465       .  S
C320       C1028   1.477       .  S
C321        C568   1.488       .  S
C322        C337   1.483       .  S
O323       Cu331   1.999       .  S
O323        C333   1.278       .  A
O324       Cu331   2.009       .  S
O324        C334   1.278       .  A
O325       Cu331   1.992       .  S
O325        C335   1.275       .  A
O326       Cu331   1.993       .  S
O326        C336   1.275       .  A
O327       Cu332   2.014       .  S
O327        C336   1.279       .  A
O328       Cu332   2.021       .  S
O328        C335   1.279       .  A
O329       Cu332   1.998       .  S
O329        C334   1.275       .  A
O330       Cu332   2.001       .  S
O330        C333   1.276       .  A
Cu331      Cu332   2.373       .  S
C333        C357   1.479       .  S
C334       C1008   1.464       .  S
C335        C817   1.470       .  S
C336        C348   1.480       .  S
C337        C338   1.417       .  A
C337        C342   1.407       .  A
C338        C339   1.400       .  A
C338       Br354   1.921       .  S
C339        C340   1.399       .  A
C339        H343   1.083       .  S
C340        C344   1.472       .  S
C340        C341   1.404       .  A
C341        C342   1.396       .  A
C341       Br353   1.920       .  S
C342        H345   1.083       .  S
C344        C346   1.398       .  A
C344        C350   1.404       .  A
C346        C347   1.396       .  A
C346        H351   1.084       .  S
C347        C348   1.417       .  A
C347       Br355   1.923       .  S
C348        C349   1.407       .  A
C349        C350   1.399       .  A
C349        H352   1.083       .  S
C350       Br356   1.917       .  S
C357        C358   1.416       .  A
C357        C362   1.405       .  A
C358        C359   1.400       .  A
C358       Br374   1.921       .  S
C359        C360   1.400       .  A
C359        H363   1.084       .  S
C360        C364   1.470       .  S
C360        C361   1.404       .  A
C361        C362   1.393       .  A
C361       Br373   1.920       .  S
C362        H365   1.083       .  S
C364        C366   1.401       .  A
C364        C370   1.405       .  A
C366        C367   1.400       .  A
C366        H371   1.083       .  S
C367        C368   1.411       .  A
C367       Br375   1.920       .  S
C368        C369   1.404       .  A
C369        C370   1.393       .  A
C369        H372   1.084       .  S
C370       Br376   1.920       .  S
C377        C378   1.416       .  A
C377        C382   1.407       .  A
C378        C379   1.396       .  A
C378       Br394   1.922       .  S
C379        C380   1.399       .  A
C379        H383   1.084   1_455  S
C380        C384   1.473   1_455  S
C380        C381   1.407       .  A
C381        C382   1.396       .  A
C381       Br393   1.921       .  S
C382        H385   1.083       .  S
C384        C386   1.400       .  A
C384        C390   1.410       .  A
C386        C387   1.392       .  A
C386        H391   1.084       .  S
C387        C388   1.410       .  A
C387       Br395   1.923       .  S
C388        C389   1.402       .  A
C389        C390   1.398       .  A
C389        H392   1.084       .  S
C390       Br396   1.919       .  S
C397        C398   1.409       .  A
C397        C402   1.403       .  A
C398        C399   1.399       .  A
C398       Br414   1.920       .  S
C399        C400   1.404       .  A
C399        H403   1.083   1_455  S
C400        C404   1.484   1_455  S
C400        C401   1.412       .  A
C401        C402   1.400       .  A
C401       Br413   1.920       .  S
C402        H405   1.083       .  S
C404        C406   1.405       .  A
C404        C410   1.413       .  A
C406        C407   1.400       .  A
C406        H411   1.083       .  S
C407        C408   1.407       .  A
C407       Br415   1.919       .  S
C408        C409   1.400       .  A
C409        C410   1.398       .  A
C409        H412   1.084       .  S
C410       Br416   1.921       .  S
C417        C418   1.415       .  A
C417        C422   1.405       .  A
C418        C419   1.400       .  A
C418       Br434   1.920       .  S
C419        C420   1.400       .  A
C419        H423   1.083       .  S
C420        C424   1.471       .  S
C420        C421   1.404       .  A
C421        C422   1.394       .  A
C421       Br433   1.919       .  S
C422        H425   1.083       .  S
C424        C426   1.398       .  A
C424        C430   1.405       .  A
C426        C427   1.394       .  A
C426        H431   1.084       .  S
C427        C428   1.414       .  A
C427       Br435   1.923       .  S
C428        C429   1.407       .  A
C429        C430   1.401       .  A
C429        H432   1.084       .  S
C430       Br436   1.918       .  S
C437        C438   1.415       .  A
C437        C442   1.405       .  A
C438        C439   1.402       .  A
C438       Br454   1.919       .  S
C439        C440   1.401       .  A
C439        H443   1.083       .  S
C440        C444   1.473       .  S
C440        C441   1.405       .  A
C441        C442   1.394       .  A
C441       Br453   1.921       .  S
C442        H445   1.083       .  S
C444        C446   1.402       .  A
C444        C450   1.406       .  A
C446        C447   1.402       .  A
C446        H451   1.083       .  S
C447        C448   1.412       .  A
C447       Br455   1.919       .  S
C448        C449   1.404       .  A
C449        C450   1.394       .  A
C449        H452   1.083       .  S
C450       Br456   1.921       .  S
C457        C458   1.411       .  A
C457        C462   1.404       .  A
C458        C459   1.398       .  A
C458       Br474   1.920       .  S
C459        C460   1.403       .  A
C459        H463   1.083       .  S
C460        C464   1.475       .  S
C460        C461   1.407       .  A
C461        C462   1.395       .  A
C461       Br473   1.920       .  S
C462        H465   1.083       .  S
C464        C466   1.402       .  A
C464        C470   1.406       .  A
C466        C467   1.397       .  A
C466        H471   1.083       .  S
C467        C468   1.413       .  A
C467       Br475   1.921       .  S
C468        C469   1.407       .  A
C469        C470   1.396       .  A
C469        H472   1.083       .  S
C470       Br476   1.920       .  S
C477        C478   1.405       .  A
C477        C482   1.399       .  A
C478        C479   1.398       .  A
C478       Br494   1.919       .  S
C479        C480   1.403       .  A
C479        H483   1.083       .  S
C480        C484   1.469   1_554  S
C480        C481   1.408       .  A
C481        C482   1.394       .  A
C481       Br493   1.920       .  S
C482        H485   1.084       .  S
C484        C486   1.400       .  A
C484        C490   1.405       .  A
C486        C487   1.396       .  A
C486        H491   1.084       .  S
C487        C488   1.412       .  A
C487       Br495   1.921       .  S
C488        C489   1.406       .  A
C489        C490   1.396       .  A
C489        H492   1.084       .  S
C490       Br496   1.919   1_556  S
C497        C498   1.410       .  A
C497        C502   1.402       .  A
C498        C499   1.400       .  A
C498       Br514   1.921       .  S
C499        C500   1.403       .  A
C499        H503   1.083       .  S
C500        C504   1.480       .  S
C500        C501   1.409       .  A
C501        C502   1.398       .  A
C501       Br513   1.919       .  S
C502        H505   1.084       .  S
C504        C506   1.400       .  A
C504        C510   1.408       .  A
C506        C507   1.398       .  A
C506        H511   1.083       .  S
C507        C508   1.416       .  A
C507       Br515   1.921       .  S
C508        C509   1.407       .  A
C509        C510   1.401       .  A
C509        H512   1.083       .  S
C510       Br516   1.919       .  S
C517        C518   1.407       .  A
C517        C522   1.403       .  A
C518        C519   1.399       .  A
C518       Br534   1.919       .  S
C519        C520   1.405       .  A
C519        H523   1.084       .  S
C520        C524   1.478       .  S
C520        C521   1.409       .  A
C521        C522   1.396       .  A
C521       Br533   1.920       .  S
C522        H525   1.084       .  S
C524        C526   1.405   1_655  A
C524        C530   1.409   1_655  A
C526        C527   1.401       .  A
C526        H531   1.083   1_455  S
C527        C528   1.410       .  A
C527       Br535   1.920       .  S
C528        C529   1.401       .  A
C529        C530   1.395       .  A
C529        H532   1.084       .  S
C530       Br536   1.920       .  S
C537        C538   1.414       .  A
C537        C542   1.408       .  A
C538        C539   1.395       .  A
C538       Br554   1.920       .  S
C539        C540   1.399       .  A
C539        H543   1.084       .  S
C540        C544   1.470       .  S
C540        C541   1.403       .  A
C541        C542   1.397       .  A
C541       Br553   1.918       .  S
C542        H545   1.084       .  S
C544        C546   1.397       .  A
C544        C550   1.402   1_565  A
C546        C547   1.396   1_565  A
C546        H551   1.084       .  S
C547        C548   1.421       .  A
C547       Br555   1.923       .  S
C548        C549   1.409       .  A
C549        C550   1.396       .  A
C549        H552   1.083       .  S
C550       Br556   1.918       .  S
C557        C558   1.411       .  A
C557        C562   1.402       .  A
C558        C559   1.399       .  A
C558       Br574   1.920       .  S
C559        C560   1.401       .  A
C559        H563   1.083       .  S
C560        C564   1.470       .  S
C560        C561   1.405       .  A
C561        C562   1.395       .  A
C561       Br573   1.918       .  S
C562        H565   1.084       .  S
C564        C566   1.398       .  A
C564        C570   1.402       .  A
C566        C567   1.399       .  A
C566        H571   1.084       .  S
C567        C568   1.421       .  A
C567       Br575   1.923       .  S
C568        C569   1.410       .  A
C569        C570   1.396       .  A
C569        H572   1.082       .  S
C570       Br576   1.919       .  S
C577        C578   1.407       .  A
C577        C582   1.402       .  A
C578        C579   1.392       .  A
C578       Br594   1.922       .  S
C579        C580   1.402       .  A
C579        H583   1.084       .  S
C580        C584   1.474       .  S
C580        C581   1.409       .  A
C581        C582   1.399       .  A
C581       Br593   1.919       .  S
C582        H585   1.083       .  S
C584        C586   1.402   1_565  A
C584        C590   1.406   1_565  A
C586        C587   1.397       .  A
C586        H591   1.084       .  S
C587        C588   1.414       .  A
C587       Br595   1.922       .  S
C588        C589   1.407       .  A
C589        C590   1.395       .  A
C589        H592   1.083       .  S
C590       Br596   1.920   1_545  S
C597        C598   1.414       .  A
C597        C602   1.405       .  A
C598        C599   1.397       .  A
C598       Br614   1.921       .  S
C599        C600   1.399       .  A
C599        H603   1.085       .  S
C600        C604   1.466       .  S
C600        C601   1.403       .  A
C601        C602   1.393       .  A
C601       Br613   1.919       .  S
C602        H605   1.084       .  S
C604        C606   1.398       .  A
C604        C610   1.401       .  A
C606        C607   1.397       .  A
C606        H611   1.083       .  S
C607        C608   1.418       .  A
C607       Br615   1.922       .  S
C608        C609   1.409       .  A
C609        C610   1.394       .  A
C609        H612   1.083       .  S
C610       Br616   1.920       .  S
C617        C618   1.412       .  A
C617        C622   1.403       .  A
C618        C619   1.397       .  A
C618       Br634   1.920       .  S
C619        C620   1.399       .  A
C619        H623   1.084       .  S
C620        C624   1.463   1_556  S
C620        C621   1.404       .  A
C621        C622   1.391       .  A
C621       Br633   1.920   1_556  S
C622        H625   1.083       .  S
C624        C626   1.397       .  A
C624        C630   1.401       .  A
C626        C627   1.394       .  A
C626        H631   1.084       .  S
C627        C628   1.417       .  A
C627       Br635   1.924       .  S
C628        C629   1.407       .  A
C629        C630   1.394       .  A
C629        H632   1.083       .  S
C630       Br636   1.918       .  S
C637        C638   1.416       .  A
C637        C642   1.410       .  A
C638        C639   1.397       .  A
C638       Br654   1.922       .  S
C639        C640   1.401       .  A
C639        H643   1.084   1_455  S
C640        C644   1.474   1_455  S
C640        C641   1.404       .  A
C641        C642   1.395       .  A
C641       Br653   1.920       .  S
C642        H645   1.083       .  S
C644        C646   1.399       .  A
C644        C650   1.405       .  A
C646        C647   1.396       .  A
C646        H651   1.084       .  S
C647        C648   1.419       .  A
C647       Br655   1.923       .  S
C648        C649   1.408       .  A
C649        C650   1.396       .  A
C649        H652   1.083       .  S
C650       Br656   1.920       .  S
C657        C658   1.412       .  A
C657        C662   1.403       .  A
C658        C659   1.397       .  A
C658       Br674   1.921       .  S
C659        C660   1.401       .  A
C659        H663   1.082       .  S
C660        C664   1.471       .  S
C660        C661   1.405       .  A
C661        C662   1.396       .  A
C661       Br673   1.918       .  S
C662        H665   1.082       .  S
C664        C666   1.400       .  A
C664        C670   1.402       .  A
C666        C667   1.401       .  A
C666        H671   1.083       .  S
C667        C668   1.418       .  A
C667       Br675   1.921       .  S
C668        C669   1.410       .  A
C669        C670   1.394       .  A
C669        H672   1.083       .  S
C670       Br676   1.920       .  S
C677        C678   1.415       .  A
C677        C682   1.408       .  A
C678        C679   1.397       .  A
C678       Br694   1.921       .  S
C679        C680   1.399       .  A
C679        H683   1.085       .  S
C680        C684   1.471       .  S
C680        C681   1.404       .  A
C681        C682   1.396       .  A
C681       Br693   1.919       .  S
C682        H685   1.084       .  S
C684        C686   1.400       .  A
C684        C690   1.404       .  A
C686        C687   1.398       .  A
C686        H691   1.088       .  S
C687        C688   1.415       .  A
C687       Br695   1.921       .  S
C688        C689   1.406       .  A
C689        C690   1.395       .  A
C689        H692   1.086       .  S
C690       Br696   1.919       .  S
C697        C698   1.413       .  A
C697        C702   1.405       .  A
C698        C699   1.393       .  A
C698       Br714   1.922       .  S
C699        C700   1.400       .  A
C699        H703   1.084       .  S
C700        C704   1.474       .  S
C700        C701   1.407       .  A
C701        C702   1.399       .  A
C701       Br713   1.918       .  S
C702        H705   1.083       .  S
C704        C706   1.398       .  A
C704        C710   1.406       .  A
C706        C707   1.396       .  A
C706        H711   1.084       .  S
C707        C708   1.420       .  A
C707       Br715   1.923       .  S
C708        C709   1.408       .  A
C709        C710   1.396       .  A
C709        H712   1.083       .  S
C710       Br716   1.920       .  S
C717        C718   1.413       .  A
C717        C722   1.406       .  A
C718        C719   1.395       .  A
C718       Br734   1.921       .  S
C719        C720   1.399       .  A
C719        H723   1.084       .  S
C720        C724   1.468       .  S
C720        C721   1.404       .  A
C721        C722   1.396       .  A
C721       Br733   1.919       .  S
C722        H725   1.083       .  S
C724        C726   1.399       .  A
C724        C730   1.404       .  A
C726        C727   1.398       .  A
C726        H731   1.084       .  S
C727        C728   1.415       .  A
C727       Br735   1.920       .  S
C728        C729   1.405       .  A
C729        C730   1.393       .  A
C729        H732   1.083       .  S
C730       Br736   1.920       .  S
C737        C738   1.408       .  A
C737        C742   1.401       .  A
C738        C739   1.403       .  A
C738       Br754   1.920       .  S
C739        C740   1.404       .  A
C739        H743   1.083       .  S
C740        C744   1.476       .  S
C740        C741   1.407       .  A
C741        C742   1.396       .  A
C741       Br753   1.919       .  S
C742        H745   1.084       .  S
C744        C746   1.402       .  A
C744        C750   1.408       .  A
C746        C747   1.399       .  A
C746        H751   1.083       .  S
C747        C748   1.408       .  A
C747       Br755   1.920       .  S
C748        C749   1.402       .  A
C749        C750   1.400       .  A
C749        H752   1.084       .  S
C750       Br756   1.918       .  S
C757        C758   1.421       .  A
C757        C762   1.409       .  A
C758        C759   1.396       .  A
C758       Br774   1.924       .  S
C759        C760   1.397       .  A
C759        H763   1.083       .  S
C760        C764   1.468       .  S
C760        C761   1.402       .  A
C761        C762   1.396       .  A
C761       Br773   1.919       .  S
C762        H765   1.083       .  S
C764        C766   1.399       .  A
C764        C770   1.406       .  A
C766        C767   1.392       .  A
C766        H771   1.083       .  S
C767        C768   1.409       .  A
C767       Br775   1.921       .  S
C768        C769   1.405       .  A
C769        C770   1.400       .  A
C769        H772   1.083       .  S
C770       Br776   1.917       .  S
C777        C778   1.412       .  A
C777        C782   1.405       .  A
C778        C779   1.397       .  A
C778       Br794   1.921       .  S
C779        C780   1.401       .  A
C779        H783   1.083       .  S
C780        C784   1.473       .  S
C780        C781   1.405       .  A
C781        C782   1.399       .  A
C781       Br793   1.917       .  S
C782        H785   1.083       .  S
C784        C786   1.401       .  A
C784        C790   1.403       .  A
C786        C787   1.401       .  A
C786        H791   1.083       .  S
C787        C788   1.416       .  A
C787       Br795   1.921       .  S
C788        C789   1.408       .  A
C789        C790   1.396       .  A
C789        H792   1.083       .  S
C790       Br796   1.919       .  S
C797        C798   1.414       .  A
C797        C802   1.405       .  A
C798        C799   1.395   1_545  A
C798       Br814   1.923       .  S
C799        C800   1.399       .  A
C799        H803   1.084       .  S
C800        C804   1.467       .  S
C800        C801   1.404   1_565  A
C801        C802   1.397       .  A
C801       Br813   1.918   1_545  S
C802        H805   1.084       .  S
C804        C806   1.398       .  A
C804        C810   1.404       .  A
C806        C807   1.394       .  A
C806        H811   1.084       .  S
C807        C808   1.415       .  A
C807       Br815   1.922       .  S
C808        C809   1.407       .  A
C809        C810   1.398       .  A
C809        H812   1.083       .  S
C810       Br816   1.918       .  S
C817        C818   1.410       .  A
C817        C822   1.402       .  A
C818        C819   1.398       .  A
C818       Br834   1.921       .  S
C819        C820   1.402       .  A
C819        H823   1.083       .  S
C820        C824   1.478       .  S
C820        C821   1.409       .  A
C821        C822   1.399       .  A
C821       Br833   1.919       .  S
C822        H825   1.084       .  S
C824        C826   1.401       .  A
C824        C830   1.407       .  A
C826        C827   1.399       .  A
C826        H831   1.083       .  S
C827        C828   1.414       .  A
C827       Br835   1.921       .  S
C828        C829   1.406       .  A
C829        C830   1.398       .  A
C829        H832   1.083       .  S
C830       Br836   1.919       .  S
C837        C838   1.412       .  A
C837        C842   1.403       .  A
C838        C839   1.397       .  A
C838       Br854   1.921       .  S
C839        C840   1.403       .  A
C839        H843   1.085       .  S
C840        C844   1.483       .  S
C840        C841   1.411       .  A
C841        C842   1.397       .  A
C841       Br853   1.919       .  S
C842        H845   1.099       .  S
C844        C846   1.404       .  A
C844        C850   1.411       .  A
C846        C847   1.401       .  A
C846        H851   1.084       .  S
C847        C848   1.411       .  A
C847       Br855   1.919       .  S
C848        C849   1.403       .  A
C849        C850   1.396       .  A
C849        H852   1.083       .  S
C850       Br856   1.921       .  S
C857        C858   1.413       .  A
C857        C862   1.405       .  A
C858        C859   1.397       .  A
C858       Br874   1.921       .  S
C859        C860   1.402   1_545  A
C859        H863   1.084       .  S
C860        C864   1.482       .  S
C860        C861   1.409       .  A
C861        C862   1.400   1_565  A
C861       Br873   1.920       .  S
C862        H865   1.084       .  S
C864        C866   1.404       .  A
C864        C870   1.410       .  A
C866        C867   1.397       .  A
C866        H871   1.084       .  S
C867        C868   1.409       .  A
C867       Br875   1.921       .  S
C868        C869   1.402       .  A
C869        C870   1.400       .  A
C869        H872   1.084       .  S
C870       Br876   1.919       .  S
C877        C878   1.417       .  A
C877        C882   1.409       .  A
C878        C879   1.398       .  A
C878       Br894   1.922       .  S
C879        C880   1.399       .  A
C879        H883   1.084       .  S
C880        C884   1.469       .  S
C880        C881   1.402       .  A
C881        C882   1.395       .  A
C881       Br893   1.918       .  S
C882        H885   1.083       .  S
C884        C886   1.399       .  A
C884        C890   1.405       .  A
C886        C887   1.397       .  A
C886        H891   1.084       .  S
C887        C888   1.413       .  A
C887       Br895   1.920       .  S
C888        C889   1.406       .  A
C889        C890   1.398       .  A
C889        H892   1.084       .  S
C890       Br896   1.919       .  S
C897        C898   1.415       .  A
C897        C902   1.406       .  A
C898        C899   1.396       .  A
C898       Br914   1.922       .  S
C899        C900   1.400       .  A
C899        H903   1.083       .  S
C900        C904   1.475       .  S
C900        C901   1.406       .  A
C901        C902   1.399       .  A
C901       Br913   1.918       .  S
C902        H905   1.083       .  S
C904        C906   1.399       .  A
C904        C910   1.405       .  A
C906        C907   1.400       .  A
C906        H911   1.083       .  S
C907        C908   1.420       .  A
C907       Br915   1.923       .  S
C908        C909   1.409       .  A
C909        C910   1.396       .  A
C909        H912   1.083       .  S
C910       Br916   1.920       .  S
C917        C918   1.417       .  A
C917        C922   1.408       .  A
C918        C919   1.398       .  A
C918       Br934   1.922       .  S
C919        C920   1.401       .  A
C919        H923   1.083       .  S
C920        C924   1.477       .  S
C920        C921   1.406       .  A
C921        C922   1.399       .  A
C921       Br933   1.919       .  S
C922        H925   1.083       .  S
C924        C926   1.400       .  A
C924        C930   1.404       .  A
C926        C927   1.399       .  A
C926        H931   1.083       .  S
C927        C928   1.420       .  A
C927       Br935   1.922       .  S
C928        C929   1.410       .  A
C929        C930   1.398       .  A
C929        H932   1.083       .  S
C930       Br936   1.919       .  S
C937        C938   1.408       .  A
C937        C942   1.403       .  A
C938        C939   1.399       .  A
C938       Br954   1.919       .  S
C939        C940   1.403       .  A
C939        H943   1.083       .  S
C940        C944   1.476       .  S
C940        C941   1.408       .  A
C941        C942   1.399       .  A
C941       Br953   1.920       .  S
C942        H945   1.084       .  S
C944        C946   1.404       .  A
C944        C950   1.408       .  A
C946        C947   1.400       .  A
C946        H951   1.083       .  S
C947        C948   1.408       .  A
C947       Br955   1.920       .  S
C948        C949   1.401       .  A
C949        C950   1.396       .  A
C949        H952   1.084       .  S
C950       Br956   1.919       .  S
C957        C958   1.412       .  A
C957        C962   1.406       .  A
C958        C959   1.394       .  A
C958       Br974   1.922       .  S
C959        C960   1.401       .  A
C959        H963   1.084       .  S
C960        C964   1.476       .  S
C960        C961   1.408       .  A
C961        C962   1.401       .  A
C961       Br973   1.919       .  S
C962        H965   1.084       .  S
C964        C966   1.400       .  A
C964        C970   1.408       .  A
C966        C967   1.393       .  A
C966        H971   1.084       .  S
C967        C968   1.414       .  A
C967       Br975   1.923       .  S
C968        C969   1.406       .  A
C969        C970   1.401       .  A
C969        H972   1.083       .  S
C970       Br976   1.919       .  S
C977        C978   1.415       .  A
C977        C982   1.406       .  A
C978        C979   1.395       .  A
C978       Br994   1.922       .  S
C979        C980   1.398       .  A
C979        H983   1.084       .  S
C980        C984   1.467       .  S
C980        C981   1.404       .  A
C981        C982   1.395       .  A
C981       Br993   1.918       .  S
C982        H985   1.083       .  S
C984        C986   1.397       .  A
C984        C990   1.403       .  A
C986        C987   1.397       .  A
C986        H991   1.084       .  S
C987        C988   1.418       .  A
C987       Br995   1.922       .  S
C988        C989   1.407       .  A
C989        C990   1.395       .  A
C989        H992   1.083       .  S
C990       Br996   1.920       .  S
C997        C998   1.411       .  A
C997       C1002   1.401       .  A
C998        C999   1.400       .  A
C998      Br1014   1.921       .  S
C999       C1000   1.401       .  A
C999       H1003   1.083       .  S
C1000      C1004   1.471       .  S
C1000      C1001   1.406       .  A
C1001      C1002   1.395       .  A
C1001     Br1013   1.918       .  S
C1002      H1005   1.084       .  S
C1004      C1006   1.402       .  A
C1004      C1010   1.407       .  A
C1006      C1007   1.398       .  A
C1006      H1011   1.083       .  S
C1007      C1008   1.408       .  A
C1007     Br1015   1.919       .  S
C1008      C1009   1.401       .  A
C1009      C1010   1.396       .  A
C1009      H1012   1.084       .  S
C1010     Br1016   1.918       .  S
C1017      C1018   1.411       .  A
C1017      C1022   1.404       .  A
C1018      C1019   1.395       .  A
C1018     Br1034   1.921       .  S
C1019      C1020   1.401       .  A
C1019      H1023   1.084       .  S
C1020      C1024   1.473       .  S
C1020      C1021   1.407       .  A
C1021      C1022   1.397       .  A
C1021     Br1033   1.919       .  S
C1022      H1025   1.083       .  S
C1024      C1026   1.402       .  A
C1024      C1030   1.405       .  A
C1026      C1027   1.398       .  A
C1026      H1031   1.084       .  S
C1027      C1028   1.413       .  A
C1027     Br1035   1.921       .  S
C1028      C1029   1.407       .  A
C1029      C1030   1.394       .  A
C1029      H1032   1.084       .  S
C1030     Br1036   1.920       .  S
C1037      C1038   1.406       .  A
C1037      C1042   1.401       .  A
C1038      C1039   1.395       .  A
C1038     Br1054   1.920       .  S
C1039      C1040   1.403       .  A
C1039      H1043   1.084       .  S
C1040      C1044   1.474       .  S
C1040      C1041   1.409       .  A
C1041      C1042   1.398       .  A
C1041     Br1053   1.919       .  S
C1042      H1045   1.084       .  S
C1044      C1046   1.402       .  A
C1044      C1050   1.407       .  A
C1046      C1047   1.397       .  A
C1046      H1051   1.084       .  S
C1047      C1048   1.412       .  A
C1047     Br1055   1.921       .  S
C1048      C1049   1.403       .  A
C1049      C1050   1.396       .  A
C1049      H1052   1.084       .  S
C1050     Br1056   1.919       .  S
C1057      C1058   1.419       .  A
C1057      C1062   1.410       .  A
C1058      C1059   1.399       .  A
C1058     Br1074   1.922       .  S
C1059      C1060   1.400       .  A
C1059      H1063   1.083       .  S
C1060      C1064   1.472       .  S
C1060      C1061   1.403       .  A
C1061      C1062   1.394       .  A
C1061     Br1073   1.920       .  S
C1062      H1065   1.083       .  S
C1064      C1066   1.400       .  A
C1064      C1070   1.406       .  A
C1066      C1067   1.394       .  A
C1066      H1071   1.084       .  S
C1067      C1068   1.410       .  A
C1067     Br1075   1.921       .  S
C1068      C1069   1.407       .  A
C1069      C1070   1.399       .  A
C1069      H1072   1.084       .  S
C1070     Br1076   1.919       .  S
C1077      C1078   1.413       .  A
C1077      C1082   1.405       .  A
C1078      C1079   1.396       .  A
C1078     Br1094   1.921       .  S
C1079      C1080   1.400       .  A
C1079      H1083   1.083       .  S
C1080      C1084   1.468       .  S
C1080      C1081   1.404       .  A
C1081      C1082   1.395       .  A
C1081     Br1093   1.919       .  S
C1082      H1085   1.084       .  S
C1084      C1086   1.400       .  A
C1084      C1090   1.404       .  A
C1086      C1087   1.399       .  A
C1086      H1091   1.083       .  S
C1087      C1088   1.414       .  A
C1087     Br1095   1.920       .  S
C1088      C1089   1.405       .  A
C1089      C1090   1.392       .  A
C1089      H1092   1.083       .  S
C1090     Br1096   1.920       .  S
C1097      C1098   1.417       .  A
C1097      C1102   1.409       .  A
C1098      C1099   1.399       .  A
C1098     Br1114   1.921       .  S
C1099      C1100   1.399       .  A
C1099      H1103   1.084       .  S
C1100      C1104   1.477       .  S
C1100      C1101   1.405       .  A
C1101      C1102   1.401       .  A
C1101     Br1113   1.918       .  S
C1102      H1105   1.083       .  S
C1104      C1106   1.400       .  A
C1104      C1110   1.405       .  A
C1106      C1107   1.401       .  A
C1106      H1111   1.083       .  S
C1107      C1108   1.416       .  A
C1107     Br1115   1.921       .  S
C1108      C1109   1.407       .  A
C1109      C1110   1.397       .  A
C1109      H1112   1.084       .  S
C1110     Br1116   1.918       .  S
C1117      C1118   1.416       .  A
C1117      C1122   1.406       .  A
C1118      C1119   1.399       .  A
C1118     Br1134   1.922       .  S
C1119      C1120   1.401       .  A
C1119      H1123   1.083       .  S
C1120      C1124   1.474       .  S
C1120      C1121   1.405       .  A
C1121      C1122   1.393       .  A
C1121     Br1133   1.921       .  S
C1122      H1125   1.083       .  S
C1124      C1126   1.402       .  A
C1124      C1130   1.407       .  A
C1126      C1127   1.396       .  A
C1126      H1131   1.084       .  S
C1127      C1128   1.410       .  A
C1127     Br1135   1.921       .  S
C1128      C1129   1.405       .  A
C1129      C1130   1.397       .  A
C1129      H1132   1.084       .  S
C1130     Br1136   1.919       .  S
C1137      C1138   1.420       .  A
C1137      C1142   1.409       .  A
C1138      C1139   1.400       .  A
C1138     Br1154   1.922       .  S
C1139      C1140   1.400       .  A
C1139      H1143   1.084       .  S
C1140      C1144   1.474       .  S
C1140      C1141   1.403       .  A
C1141      C1142   1.395       .  A
C1141     Br1153   1.919       .  S
C1142      H1145   1.083       .  S
C1144      C1146   1.401       .  A
C1144      C1150   1.405       .  A
C1146      C1147   1.400       .  A
C1146      H1151   1.083       .  S
C1147      C1148   1.414       .  A
C1147     Br1155   1.920       .  S
C1148      C1149   1.405       .  A
C1149      C1150   1.396       .  A
C1149      H1152   1.083       .  S
C1150     Br1156   1.919       .  S
C1157      C1158   1.416       .  A
C1157      C1162   1.407       .  A
C1158      C1159   1.400       .  A
C1158     Br1174   1.921       .  S
C1159      C1160   1.401       .  A
C1159      H1163   1.084       .  S
C1160      C1164   1.479       .  S
C1160      C1161   1.405       .  A
C1161      C1162   1.399       .  A
C1161     Br1173   1.918       .  S
C1162      H1165   1.083       .  S
C1164      C1166   1.400       .  A
C1164      C1170   1.406       .  A
C1166      C1167   1.401       .  A
C1166      H1171   1.084       .  S
C1167      C1168   1.418       .  A
C1167     Br1175   1.921       .  S
C1168      C1169   1.408       .  A
C1169      C1170   1.400       .  A
C1169      H1172   1.083       .  S
C1170     Br1176   1.919       .  S
C1177      C1178   1.414       .  A
C1177      C1182   1.406       .  A
C1178      C1179   1.401       .  A
C1178     Br1194   1.919       .  S
C1179      C1180   1.402       .  A
C1179      H1183   1.084       .  S
C1180      C1184   1.477   1_556  S
C1180      C1181   1.407       .  A
C1181      C1182   1.397       .  A
C1181     Br1193   1.921   1_556  S
C1182      H1185   1.083       .  S
C1184      C1186   1.399       .  A
C1184      C1190   1.404       .  A
C1186      C1187   1.399       .  A
C1186      H1191   1.084       .  S
C1187      C1188   1.421       .  A
C1187     Br1195   1.923       .  S
C1188      C1189   1.409       .  A
C1189      C1190   1.398       .  A
C1189      H1192   1.084       .  S
C1190     Br1196   1.918       .  S
C1197      C1198   1.408       .  A
C1197      C1202   1.403       .  A
C1198      C1199   1.397       .  A
C1198     Br1214   1.919       .  S
C1199      C1200   1.403       .  A
C1199      H1203   1.083       .  S
C1200      C1204   1.475       .  S
C1200      C1201   1.410       .  A
C1201      C1202   1.397       .  A
C1201     Br1213   1.921       .  S
C1202      H1205   1.083       .  S
C1204      C1206   1.403       .  A
C1204      C1210   1.409       .  A
C1206      C1207   1.394       .  A
C1206      H1211   1.084       .  S
C1207      C1208   1.407       .  A
C1207     Br1215   1.922       .  S
C1208      C1209   1.402       .  A
C1209      C1210   1.397       .  A
C1209      H1212   1.084       .  S
C1210     Br1216   1.919       .  S
C1217      C1218   1.416       .  A
C1217      C1222   1.407       .  A
C1218      C1219   1.398       .  A
C1218     Br1234   1.922       .  S
C1219      C1220   1.400       .  A
C1219      H1223   1.083       .  S
C1220      C1224   1.471       .  S
C1220      C1221   1.403       .  A
C1221      C1222   1.395       .  A
C1221     Br1233   1.918       .  S
C1222      H1225   1.083       .  S
C1224      C1226   1.401       .  A
C1224      C1230   1.403       .  A
C1226      C1227   1.401       .  A
C1226      H1231   1.083       .  S
C1227      C1228   1.414       .  A
C1227     Br1235   1.919       .  S
C1228      C1229   1.407       .  A
C1229      C1230   1.393       .  A
C1229      H1232   1.084       .  S
C1230     Br1236   1.920       .  S
C1237      C1238   1.420       .  A
C1237      C1242   1.410       .  A
C1238      C1239   1.401       .  A
C1238     Br1254   1.922       .  S
C1239      C1240   1.400       .  A
C1239      H1243   1.083       .  S
C1240      C1244   1.476       .  S
C1240      C1241   1.403       .  A
C1241      C1242   1.396       .  A
C1241     Br1253   1.919       .  S
C1242      H1245   1.083       .  S
C1244      C1246   1.400       .  A
C1244      C1250   1.405       .  A
C1246      C1247   1.399       .  A
C1246      H1251   1.083       .  S
C1247      C1248   1.417       .  A
C1247     Br1255   1.921       .  S
C1248      C1249   1.406       .  A
C1249      C1250   1.397       .  A
C1249      H1252   1.083       .  S
C1250     Br1256   1.918       .  S
C1257      C1258   1.417       .  A
C1257      C1262   1.408       .  A
C1258      C1259   1.399       .  A
C1258     Br1274   1.922       .  S
C1259      C1260   1.401       .  A
C1259      H1263   1.084       .  S
C1260      C1264   1.472   1_554  S
C1260      C1261   1.403       .  A
C1261      C1262   1.394       .  A
C1261     Br1273   1.919       .  S
C1262      H1265   1.083       .  S
C1264      C1266   1.400       .  A
C1264      C1270   1.406       .  A
C1266      C1267   1.394       .  A
C1266      H1271   1.084   1_556  S
C1267      C1268   1.411       .  A
C1267     Br1275   1.922       .  S
C1268      C1269   1.405       .  A
C1269      C1270   1.399       .  A
C1269      H1272   1.084       .  S
C1270     Br1276   1.918       .  S
C1277      C1278   1.415       .  A
C1277      C1282   1.406       .  A
C1278      C1279   1.399       .  A
C1278     Br1294   1.921       .  S
C1279      C1280   1.399       .  A
C1279      H1283   1.083       .  S
C1280      C1284   1.469       .  S
C1280      C1281   1.404       .  A
C1281      C1282   1.394       .  A
C1281     Br1293   1.920       .  S
C1282      H1285   1.083       .  S
C1284      C1286   1.398       .  A
C1284      C1290   1.402       .  A
C1286      C1287   1.396       .  A
C1286      H1291   1.083       .  S
C1287      C1288   1.417       .  A
C1287     Br1295   1.922       .  S
C1288      C1289   1.410       .  A
C1289      C1290   1.398       .  A
C1289      H1292   1.083       .  S
C1290     Br1296   1.918       .  S
