geometry optimzed in LAMMPS
_audit_creation_date              2020-12-01 
_audit_creation_method            'lammps2cif' 
_symmetry_space_group_name_H-M    'P1' 
_symmetry_Int_Tables_number       1 
_symmetry_cell_setting            triclinic 
loop_ 
_symmetry_equiv_pos_as_xyz 
  x,y,z 
_cell_length_a                    37.57725972 
_cell_length_b                    37.515233865304424 
_cell_length_c                    58.651872142473415 
_cell_angle_alpha                 90.06572581826255 
_cell_angle_beta                  89.97089429083191 
_cell_angle_gamma                 90.00931043362577 
loop_ 
_atom_site_label 
_atom_site_type_symbol 
_atom_site_fract_x 
_atom_site_fract_y 
_atom_site_fract_z 
_atom_site_charge 
C1          C  0.43661026  0.31302841  0.35873249     0.80400
N2          N  0.40798791  0.29691390  0.34918281    -0.77900
C3          C  0.39537649  0.30815091  0.32877276     0.82800
N4          N  0.41108886  0.33599014  0.31802480    -0.77900
C5          C  0.43970826  0.35227296  0.32752062     0.82900
N6          N  0.45257592  0.34065794  0.34782953    -0.79600
C7          C  0.39194572  0.35507756  0.17360969     0.80400
N8          N  0.37508554  0.32850164  0.18513991    -0.77900
C9          C  0.38350225  0.32177964  0.20726024     0.82800
N10         N  0.40855890  0.34188194  0.21783849    -0.77900
C11         C  0.42658219  0.36736661  0.20623603     0.82900
N12         N  0.41772605  0.37444579  0.18424355    -0.79600
C13         C  0.17116868  0.35576402  0.36661100     0.80400
N14         N  0.18882709  0.32993502  0.35494360    -0.77900
C15         C  0.17965511  0.32181236  0.33321806     0.82800
N16         N  0.15340609  0.34049209  0.32279951    -0.77900
C17         C  0.13462650  0.36548624  0.33450044     0.82900
N18         N  0.14369776  0.37331007  0.35643451    -0.79600
C19         C  0.43912973  0.12592219  0.18161065     0.80400
N20         N  0.45424217  0.09682866  0.19128254    -0.77900
C21         C  0.44184472  0.08405564  0.21144329     0.82800
N22         N  0.41362271  0.10007155  0.22174625    -0.77900
C23         C  0.39836256  0.12920259  0.21206242     0.82900
N24         N  0.41136619  0.14215965  0.19212678    -0.79600
C25         C  0.45578920  0.38307304  0.31629899     0.42600
N26         N  0.98890521  0.42828572  0.31019789     0.01500
C27         C  0.99106680  0.03509892  0.21375359    -0.06400
H28         H  0.99899960  0.40213602  0.19518211     0.07000
C29         C  0.11830419  0.40099653  0.24421175    -0.06700
Co30       Co  0.46645139  0.46858147  0.26840220     0.74200
N31         N  0.99290822  0.43066253  0.22703128    -0.25900
Co32       Co  0.03407788  0.46811158  0.22848388     0.74100
C33         C  0.10629397  0.38405357  0.22323323     0.42700
N34         N  0.09323448  0.42821170  0.29805104     0.01100
N35         N  0.07252583  0.42838705  0.23040986     0.01200
N36         N  0.44695779  0.03493038  0.24014398    -0.46800
H37         H  0.42121620  0.39467487  0.28477603     0.07000
N38         N  0.46782632  0.43028506  0.24276838     0.01500
N39         N  0.07494003  0.00571063  0.23011968     0.01200
C40         C  0.11327939  0.04590235  0.22184956     0.42800
N41         N  0.06828995  0.42886134  0.31386968    -0.25400
C42         C  0.44255645  0.03317806  0.29723605    -0.06300
N43         N  0.98394627  0.40135267  0.32440167    -0.46500
N44         N  0.08407429  0.02882203  0.21403791    -0.46700
C45         C  0.45249326  0.04848560  0.31910510     0.42600
N46         N  0.46952249  0.00822029  0.24334547     0.01500
N47         N  0.06718444  0.00614468  0.31344361    -0.25400
N48         N  0.46548553  0.42888185  0.29338357    -0.25900
N49         N  0.09303301  0.00641850  0.29817950     0.01100
H50         H  0.05509072  0.03970515  0.34238067     0.07000
H51         H  0.14533866  0.03526452  0.25446260     0.07100
N52         N  0.99548278  0.00780826  0.22815354    -0.25900
N53         N  0.09585229  0.42825044  0.24728664    -0.25500
N54         N  0.98818859  0.00580605  0.31121199     0.01500
C55         C  0.45115566  0.39071777  0.21867377     0.42900
C56         C  0.07651247  0.40469366  0.32997733    -0.06800
N57         N  0.09736626  0.00572537  0.24742970    -0.25500
H58         H  0.14064545  0.39440731  0.25503553     0.07000
N59         N  0.44236250  0.40689681  0.23839740    -0.46800
H60         H  0.06207973  0.40037219  0.34569465     0.07000
C61         C  0.10404289  0.05100157  0.31991116     0.42700
C62         C  0.44333258  0.40114657  0.29582599    -0.06300
Co63       Co  0.02801448  0.46721383  0.31271323     0.73800
N64         N  0.11835302  0.40442131  0.30229034    -0.46500
C65         C  0.45901993  0.05295344  0.22178570     0.43000
N66         N  0.98054165  0.02981550  0.32709347    -0.46500
Co67       Co  0.09553654  0.46715819  0.27279987     0.73900
C68         C  0.12221359  0.03065219  0.24388731    -0.06800
C69         C  0.98443069  0.40673565  0.21081815    -0.06400
N70         N  0.46578816  0.00670914  0.29391126    -0.25900
N71         N  0.07792856  0.40239508  0.21548826    -0.46700
H72         H  0.00792499  0.04129884  0.19934069     0.07000
C73         C  0.07192556  0.03331950  0.32798186    -0.06800
Cl74       Cl  0.03103177  0.46769106  0.27057916    -0.49800
C75         C  0.10950532  0.38817176  0.32197146     0.42800
H76         H  0.41994399  0.03917708  0.28649970     0.07000
N77         N  0.11578116  0.03294458  0.30143784    -0.46500
C78         C  0.12706139  0.31375034  0.18092312     0.80400
N79         N  0.11090402  0.34183708  0.19132856    -0.77900
C80         C  0.12293236  0.35367723  0.21180764     0.82800
N81         N  0.15114672  0.33756736  0.22174823    -0.77900
C82         C  0.16731453  0.30953448  0.21154923     0.82900
N83         N  0.15527312  0.29756476  0.19111272    -0.79600
C84         C  0.39569554  0.08018236  0.36622033     0.80400
N85         N  0.42233032  0.06318231  0.35485229    -0.77900
C86         C  0.42921127  0.07127467  0.33273479     0.82800
N87         N  0.40917947  0.09604333  0.32195488    -0.77900
C88         C  0.38342971  0.11407753  0.33326599     0.81700
N89         N  0.37618094  0.10564173  0.35533259    -0.79600
C90         C  0.12628218  0.12502300  0.35926572     0.80400
N91         N  0.10968502  0.09635039  0.34987161    -0.77900
C92         C  0.12164166  0.08223194  0.32992090     0.82800
N93         N  0.15017165  0.09698739  0.31932192    -0.77900
C94         C  0.16667865  0.12577493  0.32853327     0.82900
N95         N  0.15477756  0.13963588  0.34851948    -0.79600
C96         C  0.16874618  0.07930020  0.17432535     0.80400
N97         N  0.14375026  0.06057511  0.18609200    -0.77900
C98         C  0.13692122  0.06851384  0.20827317     0.82800
N99         N  0.15595849  0.09438232  0.21884160    -0.77900
C100        C  0.18002403  0.11398161  0.20705284     0.82900
N101        N  0.18659533  0.10625806  0.18482888    -0.79600
C102        C  0.36121548  0.29803813  0.22102061     0.42600
N103        N  0.31981129  0.26093671  0.22922439     0.01500
C104        C  0.21781003  0.26380258  0.32829334    -0.06400
H105        H  0.35289239  0.24210091  0.34145693     0.07000
C106        C  0.34500365  0.12773995  0.29789017    -0.06700
Co107      Co  0.28139941  0.28243406  0.27168901     0.74200
N108        N  0.31962900  0.25405604  0.31247262    -0.25900
Co109      Co  0.28055180  0.21505646  0.31214181     0.74100
C110        C  0.35953781  0.13702507  0.32006182     0.42700
N111        N  0.32166849  0.15604016  0.24343074     0.01100
N112        N  0.31880734  0.17454917  0.31140505     0.01200
N113        N  0.21845111  0.30589504  0.30076925    -0.46800
H114        H  0.35098898  0.33074947  0.25349774     0.07000
N115        N  0.32021742  0.27969433  0.29705012     0.01500
N116        N  0.24149179  0.17596032  0.31004870     0.01200
C117        C  0.19734834  0.14178486  0.31703985     0.42800
N118        N  0.32119241  0.18177061  0.22807022    -0.25400
C119        C  0.21544821  0.30552549  0.24332203    -0.06300
N120        N  0.34335688  0.26924897  0.21321158    -0.46500
N121        N  0.21514581  0.17064762  0.32464734    -0.46700
C122        C  0.19805914  0.29314062  0.22261294     0.42600
N123        N  0.24238993  0.28074438  0.29681059     0.01500
N124        N  0.24404367  0.17967855  0.22703198    -0.25400
N125        N  0.32016740  0.28355630  0.24644689    -0.25900
N126        N  0.24361966  0.15475030  0.24287210     0.01100
H127        H  0.21469073  0.18614057  0.19559609     0.07000
H128        H  0.20900175  0.10667439  0.28568341     0.07100
N129        N  0.24255249  0.25571392  0.31259127    -0.25900
N130        N  0.31967688  0.15201937  0.29412683    -0.25500
N131        N  0.24238166  0.25932015  0.22958091     0.01500
C132        C  0.36460982  0.29055985  0.31863033     0.42900
C133        C  0.34892123  0.17773309  0.21400785    -0.06800
N134        N  0.24216370  0.15216297  0.29342299    -0.25500
H135        H  0.35043997  0.10474277  0.28731101     0.07000
N136        N  0.34687922  0.30226225  0.30011891    -0.46800
H137        H  0.35531585  0.19468322  0.19967226     0.07000
C138        C  0.20301518  0.13876648  0.21942968     0.42700
C139        C  0.34582742  0.30765728  0.24294748    -0.06300
Co140      Co  0.28176182  0.22043682  0.22794710     0.73800
N141        N  0.34890374  0.13396188  0.24062890    -0.46500
C142        C  0.20143783  0.29671416  0.32011531     0.43000
N143        N  0.21612711  0.26451293  0.21487133    -0.46500
Co144      Co  0.28184199  0.15304764  0.26839807     0.73900
C145        C  0.21507519  0.12936010  0.29639170    -0.06800
C146        C  0.34672116  0.25875637  0.32694716    -0.06400
N147        N  0.24261612  0.28298530  0.24628404    -0.25900
N148        N  0.34175957  0.16598380  0.32773696    -0.46700
H149        H  0.21293685  0.24928603  0.34390774     0.07000
C150        C  0.21950708  0.17156951  0.21119286    -0.06800
Cl151      Cl  0.28135154  0.21773987  0.27005383    -0.49800
C152        C  0.36722495  0.14624538  0.22243707     0.42800
H153        H  0.20902978  0.32799225  0.25414044     0.07000
N154        N  0.21959352  0.12975235  0.23892752    -0.46500
C155        C  0.27175394  0.45414702  0.49809632     0.02400
C156        C  0.30282322  0.47549110  0.49811356     0.02400
C157        C  0.31781825  0.48597609  0.51898042    -0.18100
C158        C  0.30198785  0.47613801  0.53973028     0.02400
C159        C  0.27169211  0.45396599  0.53969472     0.02400
C160        C  0.25664328  0.44352979  0.51893475    -0.18100
H161        H  0.23355378  0.42618037  0.51901163     0.04400
H162        H  0.34071286  0.00364565  0.51900425     0.04400
C163        C  0.04108696  0.23712425  0.03998574     0.02400
C164        C  0.01916274  0.20664173  0.04000354     0.02400
C165        C  0.50817988  0.19181874  0.01918234    -0.18100
C166        C  0.01809476  0.20750962  0.99837884     0.02400
C167        C  0.04058165  0.23778219  0.99848275     0.02400
C168        C  0.05144301  0.25252581  0.01931136    -0.18100
H169        H  0.06925528  0.27528110  0.01943826     0.04400
H170        H  0.49050025  0.16897235  0.01919796     0.04400
C171        C  0.04626977  0.21044560  0.50009715     0.02400
C172        C  0.01564646  0.23205271  0.50006075     0.02400
C173        C  0.00013094  0.24254250  0.52075100    -0.18100
C174        C  0.01542558  0.23270250  0.54164507     0.02400
C175        C  0.04635134  0.21106555  0.54170900     0.02400
C176        C  0.06161680  0.20041839  0.52089067    -0.18100
H177        H  0.08462949  0.18298654  0.52087428     0.04400
H178        H  0.47699891  0.25980921  0.52056769     0.04400
C179        C  0.26470306  0.47922743  0.04221936     0.02400
C180        C  0.28544631  0.44773808  0.04218237     0.02400
C181        C  0.29472242  0.43199134  0.02128113    -0.18100
C182        C  0.28474155  0.44778526  0.00054729     0.02400
C183        C  0.26391275  0.47908549  0.00058429     0.02400
C184        C  0.25443255  0.49475813  0.02144812    -0.18100
H185        H  0.23767153  0.01831491  0.02150332     0.04400
H186        H  0.31169443  0.40862218  0.02112264     0.04400
C187        C  0.37239962  0.37614639  0.85886733     0.80400
N188        N  0.39937257  0.39401363  0.84850429    -0.77900
C189        C  0.41195209  0.38291331  0.82798778     0.82800
N190        N  0.39712850  0.35411772  0.81767991    -0.77900
C191        C  0.36977817  0.33650036  0.82777675     0.82900
N192        N  0.35768591  0.34734497  0.84847494    -0.79600
C193        C  0.41822548  0.11243848  0.86551354     0.80400
N194        N  0.43630853  0.08587670  0.85464121    -0.77900
C195        C  0.42857630  0.07771348  0.83259822     0.82800
N196        N  0.40305222  0.09630615  0.82150431    -0.77900
C197        C  0.38398103  0.12177675  0.83238351     0.82900
N198        N  0.39209692  0.13040980  0.85427639    -0.79600
C199        C  0.18443896  0.06387038  0.85909045     0.80400
N200        N  0.15700947  0.04779710  0.84798902    -0.77900
C201        C  0.14530242  0.06085644  0.82774246     0.82800
N202        N  0.16128137  0.08982172  0.81845442    -0.77900
C203        C  0.18888191  0.10583461  0.82923820     0.82900
N204        N  0.20028098  0.09298330  0.84967301    -0.79600
C205        C  0.14011367  0.33281265  0.86610534     0.80400
N206        N  0.16543989  0.31415141  0.85464192    -0.77900
C207        C  0.17243710  0.32147435  0.83243522     0.82800
N208        N  0.15305288  0.34665400  0.82141917    -0.77900
C209        C  0.12846635  0.36622189  0.83289989     0.82900
N210        N  0.12193889  0.35919113  0.85525261    -0.79600
C211        C  0.14303922  0.10751418  0.67248356     0.80400
N212        N  0.16903012  0.12544941  0.68389565    -0.77900
C213        C  0.17573544  0.11783808  0.70613899     0.82800
N214        N  0.15618972  0.09260633  0.71693592    -0.77900
C215        C  0.13131648  0.07360279  0.70546811     0.82900
N216        N  0.12424719  0.08158711  0.68335710    -0.79600
C217        C  0.37563115  0.06731656  0.67969923     0.80400
N218        N  0.35791967  0.09394374  0.69044487    -0.77900
C219        C  0.36978124  0.10662346  0.71075831     0.82800
N220        N  0.39915172  0.09205427  0.72059883    -0.77900
C221        C  0.41648577  0.06488362  0.70999745     0.82900
N222        N  0.40486711  0.05295191  0.68948750    -0.79600
C223        C  0.35363795  0.30571645  0.81641243     0.42600
N224        N  0.31949474  0.26152742  0.80928924     0.01500
C225        C  0.31936462  0.15421962  0.71302056    -0.06400
H226        H  0.30916002  0.28827982  0.69453850     0.07000
C227        C  0.19063459  0.28711022  0.74275062    -0.06700
Co228      Co  0.34274469  0.22172309  0.76746306     0.74200
N229        N  0.31588499  0.25927838  0.72609589    -0.25900
Co230      Co  0.27561174  0.22097862  0.72708055     0.74100
C231        C  0.20323283  0.30490184  0.72218013     0.42700
N232        N  0.21467408  0.25911485  0.79615667     0.01100
N233        N  0.23657472  0.26005766  0.72889390     0.01200
N234        N  0.36307278  0.15522632  0.73964797    -0.46800
H235        H  0.38838711  0.29454565  0.78488555     0.07000
N236        N  0.34072516  0.26014229  0.74195675     0.01500
N237        N  0.23552590  0.18252411  0.72825656     0.01200
C238        C  0.19874542  0.14101309  0.71978287     0.42800
N239        N  0.23962704  0.25929165  0.81197482    -0.25400
C240        C  0.36887737  0.15876120  0.79674663    -0.06300
N241        N  0.32494697  0.28769707  0.82406515    -0.46500
N242        N  0.22738670  0.15912442  0.71208751    -0.46700
C243        C  0.35994247  0.14403290  0.81890173     0.42600
N244        N  0.34037781  0.18192143  0.74248414     0.01500
N245        N  0.24234640  0.18211552  0.81186737    -0.25400
N246        N  0.34310698  0.26120676  0.79257689    -0.25900
N247        N  0.21667513  0.18101241  0.79648335     0.01100
H248        H  0.25450384  0.14983468  0.84131065     0.07000
H249        H  0.16599932  0.15055361  0.75230673     0.07100
N250        N  0.31468291  0.18188327  0.72712171    -0.25900
N251        N  0.21289515  0.25959156  0.74557108    -0.25500
N252        N  0.32173938  0.18414278  0.81034217     0.01500
C253        C  0.35630626  0.30082787  0.71833452     0.42900
C254        C  0.23092522  0.28367490  0.82781936    -0.06800
N255        N  0.21295560  0.18175543  0.74548339    -0.25500
H256        H  0.16827239  0.29360610  0.75360019     0.07000
N257        N  0.36544971  0.28444586  0.73791126    -0.46800
H258        H  0.24523491  0.28867130  0.84349562     0.07000
C259        C  0.20607068  0.13698889  0.81879882     0.42700
C260        C  0.36579495  0.28834589  0.79560306    -0.06300
Co261      Co  0.28084264  0.22186083  0.81134858     0.73800
N262        N  0.18904689  0.28249453  0.80016978    -0.46500
C263        C  0.35127935  0.13663438  0.72144637     0.43000
N264        N  0.33079456  0.16134576  0.82664372    -0.46500
Co265      Co  0.21358591  0.22025503  0.77093109     0.73900
C266        C  0.18902700  0.15600646  0.74180092    -0.06800
C267        C  0.32373240  0.28380879  0.71017250    -0.06400
N268        N  0.34419833  0.18370617  0.79304804    -0.25900
N269        N  0.23166763  0.28667855  0.71439459    -0.46700
H270        H  0.30270432  0.14754292  0.69859915     0.07000
C271        C  0.23783865  0.15536541  0.82670908    -0.06800
Cl272      Cl  0.27817470  0.22121470  0.76922032    -0.49800
C273        C  0.19767869  0.29936031  0.81966963     0.42800
H274        H  0.39199045  0.15387274  0.78619764     0.07000
N275        N  0.19426400  0.15425188  0.80002163    -0.46500
C276        C  0.41645247  0.33371207  0.67313134     0.80400
N277        N  0.43480992  0.35931565  0.68466283    -0.77900
C278        C  0.42612619  0.36734931  0.70657097     0.82800
N279        N  0.40009556  0.34860244  0.71720160    -0.77900
C280        C  0.38100552  0.32373238  0.70570166     0.82900
N281        N  0.38930979  0.31620402  0.68366625    -0.79600
C282        C  0.18220902  0.37502834  0.67978296     0.80400
N283        N  0.19893239  0.34755652  0.69047384    -0.77900
C284        C  0.18661849  0.33538792  0.71081978     0.82800
N285        N  0.15780423  0.35086375  0.72050756    -0.77900
C286        C  0.14113654  0.37841281  0.71015630     0.82900
N287        N  0.15322457  0.39044597  0.68969444    -0.79600
C288        C  0.44860047  0.39130391  0.72013843     0.42600
N289        N  0.48937153  0.42910642  0.72857021     0.01500
C290        C  0.08980446  0.42437138  0.82846571    -0.06400
H291        H  0.45469844  0.44940980  0.84034939     0.07000
C292        C  0.46705730  0.06350112  0.79718593    -0.06700
Co293      Co  0.02726911  0.40718839  0.77113420     0.74200
N294        N  0.48854102  0.43657643  0.81171259    -0.25900
Co295      Co  0.02882423  0.47458475  0.81159034     0.74100
C296        C  0.45185202  0.05432351  0.81922256     0.42700
N297        N  0.49042879  0.03477241  0.74262466     0.01100
N298        N  0.49175817  0.01588770  0.81058703     0.01200
N299        N  0.08934017  0.38260652  0.80064855    -0.46800
H300        H  0.45856399  0.35901544  0.75270517     0.07000
N301        N  0.48785786  0.41078440  0.79635398     0.01500
N302        N  0.06910787  0.01237471  0.80959036     0.01200
C303        C  0.11472392  0.04473967  0.81621423     0.42800
N304        N  0.49020972  0.00891818  0.72729300    -0.25400
C305        C  0.09303003  0.38267852  0.74230186    -0.06300
N306        N  0.46628265  0.42028402  0.71236568    -0.46500
N307        N  0.09576479  0.01681493  0.82409670    -0.46700
C308        C  0.11018791  0.39460424  0.72131776     0.42600
N309        N  0.06593461  0.40817349  0.79653851     0.01500
N310        N  0.06698469  0.00875928  0.72629267    -0.25400
N311        N  0.48884000  0.40655963  0.74580939    -0.25900
N312        N  0.06821739  0.03367207  0.74217171     0.01100
H313        H  0.09512613  0.00202211  0.69440195     0.07000
H314        H  0.10430006  0.07979113  0.78473530     0.07100
N315        N  0.06573630  0.43303572  0.81245919    -0.25900
N316        N  0.49180141  0.03856586  0.79340828    -0.25500
N317        N  0.06669869  0.42930477  0.72883745     0.01500
C318        C  0.44242885  0.40100087  0.81750221     0.42900
C319        C  0.46372752  0.01461448  0.71257226    -0.06800
N320        N  0.06934906  0.03592252  0.79284512    -0.25500
H321        H  0.46235253  0.08671774  0.78669190     0.07000
N322        N  0.46063627  0.38877948  0.79924936    -0.46800
H323        H  0.45742136  0.99821657  0.69794042     0.07000
C324        C  0.10826151  0.04918204  0.71814724     0.42700
C325        C  0.46352883  0.38216496  0.74219762    -0.06300
Co326      Co  0.02832304  0.46904722  0.72729141     0.73800
N327        N  0.46477143  0.05847198  0.73923601    -0.46500
C328        C  0.10576545  0.39121103  0.82032702     0.43000
N329        N  0.09249412  0.42356422  0.71385599    -0.46500
Co330      Co  0.02991758  0.03640648  0.76775053     0.73900
C331        C  0.09735368  0.05757347  0.79559903    -0.06800
C332        C  0.46085902  0.43256240  0.82589923    -0.06400
N333        N  0.06632295  0.40577043  0.74559835    -0.25900
N334        N  0.46878184  0.02488719  0.82681953    -0.46700
H335        H  0.09458144  0.43879192  0.84414858     0.07000
C336        C  0.09114194  0.01654269  0.71013885    -0.06800
Cl337      Cl  0.02861140  0.47184769  0.76943125    -0.49800
C338        C  0.44700358  0.04726571  0.72055620     0.42800
H339        H  0.09922786  0.36006783  0.75301349     0.07000
N340        N  0.09241698  0.05838927  0.73789815    -0.46500
C341        C  0.22574219  0.99610506  0.94676858     0.29900
C342        C  0.20757741  0.98776508  0.92652437    -0.36400
C343        C  0.20491738  0.01528772  0.91041582     0.15900
C344        C  0.21958596  0.04859597  0.91381634     0.21700
C345        C  0.23781874  0.55690472  0.93413317    -0.34500
C346        C  0.23947948  0.02972143  0.95051510     0.15800
O347        O  0.23214522  0.97411494  0.96381934    -0.26600
C348        C  0.24995753  0.49399300  0.97894721     0.05600
C349        C  0.25529931  0.52883640  0.97156853    -0.31400
O350        O  0.21476171  0.06998900  0.89619840    -0.23300
C351        C  0.19637283  0.05026460  0.88142312    -0.03300
C352        C  0.18934799  0.01604840  0.88943105    -0.17700
H353        H  0.19648489  0.96156216  0.92348619     0.20300
H354        H  0.24934506  0.58295938  0.93701770     0.18700
H355        H  0.26946017  0.55005024  0.98018664     0.18600
H356        H  0.17515945  0.99474721  0.88090590     0.14500
C357        C  0.33575913  0.38537200  0.91352475     0.29900
C358        C  0.31745236  0.37472865  0.93327102    -0.36400
C359        C  0.31345738  0.40084816  0.95023160     0.15900
C360        C  0.32625845  0.43512317  0.94773197     0.21700
C361        C  0.34509617  0.44554470  0.92822978    -0.34500
C362        C  0.34939472  0.41938133  0.91142335     0.15800
O363        O  0.34176195  0.36568459  0.89527651    -0.26600
C364        C  0.35980779  0.38729004  0.88147791     0.05600
C365        C  0.36550581  0.42096048  0.89068363    -0.31400
O366        O  0.31806016  0.45576704  0.96508641    -0.23300
C367        C  0.30013918  0.43442868  0.97906091    -0.03300
C368        C  0.29663454  0.39981566  0.97085087    -0.17700
H369        H  0.30670488  0.34812574  0.93514725     0.20300
H370        H  0.35526075  0.47234885  0.92617552     0.18700
H371        H  0.37901035  0.44345893  0.88302629     0.18600
H372        H  0.28274462  0.37764158  0.97859649     0.14500
C373        C  0.09850719  0.17941900  0.58713134     0.29900
C374        C  0.12978083  0.17302781  0.59962907    -0.36400
C375        C  0.12606093  0.15151178  0.61908345     0.15900
C376        C  0.09388048  0.13692320  0.62554026     0.21700
C377        C  0.06259375  0.14378855  0.61328713    -0.34500
C378        C  0.06620902  0.16570134  0.59410060     0.15800
O379        O  0.09589949  0.19780753  0.56801935    -0.26600
C380        C  0.06135471  0.19644279  0.56301721     0.05600
C381        C  0.04161794  0.17689020  0.57867874    -0.31400
O382        O  0.09623708  0.11805728  0.64440609    -0.23300
C383        C  0.13028435  0.12079824  0.65035395    -0.03300
C384        C  0.15015895  0.14142276  0.63526158    -0.17700
H385        H  0.15517984  0.18409014  0.59456784     0.20300
H386        H  0.03714244  0.13294950  0.61844270     0.18700
H387        H  0.01348741  0.17071553  0.57822104     0.18600
H388        H  0.17794649  0.14879128  0.63645410     0.14500
C389        C  0.46674081  0.30562639  0.62608130     0.29900
C390        C  0.49812829  0.29948451  0.61369601    -0.36400
C391        C  0.49478679  0.27811652  0.59417032     0.15900
C392        C  0.46265260  0.26424403  0.58702640     0.21700
C393        C  0.43129437  0.26998133  0.59960447    -0.34500
C394        C  0.43474391  0.29092537  0.61936804     0.15800
O395        O  0.46406862  0.32393693  0.64522027    -0.26600
C396        C  0.42997296  0.32074128  0.65103538     0.05600
C397        C  0.41045188  0.30033590  0.63561527    -0.31400
O398        O  0.46553360  0.24606404  0.56780483    -0.23300
C399        C  0.00009762  0.24768859  0.56286433    -0.03300
C400        C  0.01955357  0.26729602  0.57868544    -0.17700
H401        H  0.02345434  0.31039359  0.61901961     0.20300
H402        H  0.40602786  0.25876924  0.59440810     0.18700
H403        H  0.38269230  0.29277968  0.63658643     0.18600
H404        H  0.04768207  0.27349561  0.57839997     0.14500
C405        C  0.07333857  0.28964226  0.95331143     0.29900
C406        C  0.07898342  0.32069020  0.94044632    -0.36400
C407        C  0.10004476  0.31676159  0.92082683     0.15900
C408        C  0.11513084  0.28465024  0.91459045     0.21700
C409        C  0.10935944  0.25359941  0.92738680    -0.34500
C410        C  0.08764663  0.25736569  0.94668045     0.15800
O411        O  0.05438981  0.28710931  0.97218953    -0.26600
C412        C  0.05592652  0.25261166  0.97737017     0.05600
C413        C  0.07628445  0.23283602  0.96213221    -0.31400
O414        O  0.13270879  0.28667880  0.89518446    -0.23300
C415        C  0.12857835  0.32042521  0.88872444    -0.03300
C416        C  0.10845123  0.34041990  0.90401775    -0.17700
H417        H  0.06721583  0.34597395  0.94516108     0.20300
H418        H  0.12034872  0.22811397  0.92234723     0.18700
H419        H  0.08250355  0.20468300  0.96275356     0.18600
H420        H  0.10008899  0.36792035  0.90249508     0.14500
C421        C  0.48597347  0.15652439  0.95246341     0.29900
C422        C  0.48034025  0.12555811  0.93949080    -0.36400
C423        C  0.45976134  0.12964035  0.91970333     0.15900
C424        C  0.44518602  0.16187132  0.91330395     0.21700
C425        C  0.45115421  0.19296075  0.92614280    -0.34500
C426        C  0.47228427  0.18898300  0.94571973     0.15800
O427        O  0.00413010  0.15867964  0.97167110    -0.26600
C428        C  0.50272608  0.19310680  0.97706609     0.05600
C429        C  0.48327015  0.21326435  0.96153149    -0.31400
O430        O  0.42732923  0.15967725  0.89397446    -0.23300
C431        C  0.43078747  0.12567195  0.88777550    -0.03300
C432        C  0.45082529  0.10576782  0.90311384    -0.17700
H433        H  0.49150147  0.10010324  0.94438178     0.20300
H434        H  0.44043558  0.21852851  0.92107302     0.18700
H435        H  0.47738561  0.24149498  0.96217061     0.18600
H436        H  0.45845379  0.07801256  0.90188580     0.14500
C437        C  0.36529163  0.03111785  0.62521773     0.29900
C438        C  0.37628214  0.51557794  0.60466023    -0.36400
C439        C  0.34919881  0.50843351  0.58889222     0.15900
C440        C  0.31384499  0.01563884  0.59316576     0.21700
C441        C  0.30299391  0.03202880  0.61348589    -0.34500
C442        C  0.33006425  0.03964964  0.62912626     0.15800
O443        O  0.38594491  0.03956422  0.64252778    -0.26600
C444        C  0.36371114  0.05419362  0.65749909     0.05600
C445        C  0.32864046  0.05514571  0.65007576    -0.31400
O446        O  0.29288094  0.00550669  0.57643396    -0.23300
C447        C  0.31496518  0.49184877  0.56120962    -0.03300
C448        C  0.35043290  0.49302158  0.56786842    -0.17700
H449        H  0.40383528  0.50899264  0.60131878     0.20300
H450        H  0.27536632  0.03822215  0.61690002     0.18700
H451        H  0.30547821  0.06512951  0.65901555     0.18600
H452        H  0.37349013  0.48308026  0.55881139     0.14500
C453        C  0.22288854  0.43221640  0.58892864     0.29900
C454        C  0.19477904  0.43438068  0.60466886    -0.36400
C455        C  0.19870158  0.41430407  0.62470943     0.15900
C456        C  0.22805331  0.39317987  0.62886184     0.21700
C457        C  0.25623664  0.39114053  0.61318646    -0.34500
C458        C  0.25251562  0.41155846  0.59329552     0.15800
O459        O  0.22515190  0.44933776  0.56931099    -0.26600
C460        C  0.25678194  0.43973389  0.56115638     0.05600
C461        C  0.27500268  0.41635006  0.57534923    -0.31400
O462        O  0.22614539  0.37659767  0.64866156    -0.23300
C463        C  0.19529665  0.38744692  0.65744087    -0.03300
C464        C  0.17711198  0.41099732  0.64328470    -0.17700
H465        H  0.17163622  0.45086157  0.60161408     0.20300
H466        H  0.27960564  0.37504063  0.61638390     0.18700
H467        H  0.30117953  0.40494910  0.57285447     0.18600
H468        H  0.15163046  0.42365337  0.64621436     0.14500
C469        C  0.19244621  0.03015306  0.12587855     0.29900
C470        C  0.19493797  0.99944024  0.11230579    -0.36400
C471        C  0.21865188  0.00126829  0.09388374     0.15900
C472        C  0.23822739  0.03142374  0.08889499     0.21700
C473        C  0.23608617  0.06198598  0.10267048    -0.34500
C474        C  0.21259483  0.06005277  0.12124560     0.15800
O475        O  0.17296315  0.03375217  0.14444295    -0.26600
C476        C  0.18078250  0.06633152  0.15191471     0.05600
C477        C  0.20531235  0.08395889  0.13813579    -0.31400
O478        O  0.25756018  0.02769607  0.07024157    -0.23300
C479        C  0.25071474  0.99451395  0.06350405    -0.03300
C480        C  0.22683054  0.97675940  0.07758426    -0.17700
H481        H  0.17962234  0.97568803  0.11594716     0.20300
H482        H  0.25171748  0.08569438  0.09914820     0.18700
H483        H  0.21712611  0.10993646  0.14072497     0.18600
H484        H  0.21621716  0.95017956  0.07558895     0.14500
C485        C  0.08306248  0.14711227  0.41042483     0.29900
C486        C  0.05725539  0.14417458  0.42760532    -0.36400
C487        C  0.06185365  0.16639312  0.44662363     0.15900
C488        C  0.08981019  0.19007859  0.44863249     0.21700
C489        C  0.11532013  0.19344809  0.43124713    -0.34500
C490        C  0.11081601  0.17105915  0.41224877     0.15800
O491        O  0.08462461  0.12796938  0.39156490    -0.26600
C492        C  0.11369302  0.13986855  0.38108238     0.05600
C493        C  0.13098439  0.16679975  0.39312516    -0.31400
O494        O  0.08896363  0.20805792  0.46801952    -0.23300
C495        C  0.06012930  0.19557845  0.47850935    -0.03300
C496        C  0.04212497  0.16983798  0.46594386    -0.17700
H497        H  0.03536515  0.12551987  0.42636857     0.20300
H498        H  0.13734985  0.21192339  0.43255109     0.18700
H499        H  0.15524283  0.18069541  0.38863746     0.18600
H500        H  0.01770295  0.15615595  0.47032539     0.14500
C501        C  0.35396956  0.00707923  0.45191546     0.29900
C502        C  0.38421343  0.01131553  0.43802046    -0.36400
C503        C  0.38049777  0.03465172  0.41941475     0.15900
C504        C  0.34937921  0.05295290  0.41504648     0.21700
C505        C  0.31918211  0.04851864  0.42880754    -0.34500
C506        C  0.32266194  0.02475221  0.44708786     0.15800
O507        O  0.35118978  0.48676805  0.47035134    -0.26600
C508        C  0.31749279  0.49097901  0.47693465     0.05600
C509        C  0.29863707  0.01432081  0.46310673    -0.31400
O510        O  0.35129017  0.07259507  0.39645587    -0.23300
C511        C  0.38399512  0.06676328  0.38861694    -0.03300
C512        C  0.40339366  0.04326575  0.40219447    -0.17700
H513        H  0.40862017  0.49695869  0.44138442     0.20300
H514        H  0.29445024  0.06221854  0.42526680     0.18700
H515        H  0.27134247  0.02302984  0.46506022     0.18600
H516        H  0.42997901  0.03307565  0.39933126     0.14500
C517        C  0.08534189  0.29950234  0.12829783     0.29900
C518        C  0.06109540  0.30608095  0.11061580    -0.36400
C519        C  0.06262403  0.28260542  0.09202925     0.15900
C520        C  0.08622793  0.25443240  0.09099825     0.21700
C521        C  0.11066727  0.24803238  0.10858694    -0.34500
C522        C  0.10921972  0.27159655  0.12712236     0.15800
O523        O  0.08830376  0.31787807  0.14736974    -0.26600
C524        C  0.11446160  0.30157786  0.15852814     0.05600
C525        C  0.12851707  0.27262145  0.14673765    -0.31400
O526        O  0.08215036  0.23505564  0.07243881    -0.23300
C527        C  0.05589612  0.25128338  0.06136598    -0.03300
C528        C  0.04270874  0.28103167  0.07265924    -0.17700
H529        H  0.04218394  0.32780722  0.11138150     0.20300
H530        H  0.12924234  0.22600262  0.10797093     0.18700
H531        H  0.14976246  0.25490226  0.15190526     0.18600
H532        H  0.02097019  0.29821986  0.06762045     0.14500
C533        C  0.48269165  0.19133735  0.09412303     0.29900
C534        C  0.46608024  0.20080259  0.11464910    -0.36400
C535        C  0.46215556  0.17343225  0.13065890     0.15900
C536        C  0.47424484  0.13917797  0.12690543     0.21700
C537        C  0.99042331  0.12955659  0.10618336    -0.34500
C538        C  0.49391314  0.15688899  0.08999641     0.15800
O539        O  0.48975477  0.21300104  0.07709173    -0.26600
C540        C  0.50533381  0.19219666  0.06167413     0.05600
C541        C  0.00842245  0.15688906  0.06864964    -0.31400
O542        O  0.46835929  0.11803017  0.14446596    -0.23300
C543        C  0.45189041  0.13895238  0.15947858    -0.03300
C544        C  0.44718392  0.17365227  0.15177680    -0.17700
H545        H  0.45697581  0.22769468  0.11793337     0.20300
H546        H  0.99972816  0.10272054  0.10294992     0.18700
H547        H  0.02057798  0.13486189  0.05961014     0.18600
H548        H  0.43470379  0.19579123  0.16052873     0.14500
C549        C  0.19161677  0.39617851  0.41910433     0.29900
C550        C  0.18560147  0.41600676  0.43905985    -0.36400
C551        C  0.21584780  0.42404198  0.45215715     0.15900
C552        C  0.24977009  0.41376947  0.44592881     0.21700
C553        C  0.25571790  0.39349020  0.42619592    -0.34500
C554        C  0.22542477  0.38493810  0.41332963     0.15800
O555        O  0.16748939  0.38682855  0.40380970    -0.26600
C556        C  0.18607410  0.36869987  0.38832373     0.05600
C557        C  0.22215579  0.36653107  0.39348720    -0.31400
O558        O  0.27414580  0.42410733  0.46072097    -0.23300
C559        C  0.25553395  0.44092525  0.47676067    -0.03300
C560        C  0.21915589  0.44160919  0.47235493    -0.17700
H561        H  0.15922289  0.42465025  0.44400430     0.20300
H562        H  0.28211293  0.38490108  0.42123821     0.18700
H563        H  0.24321150  0.35461081  0.38344007     0.18600
H564        H  0.19820779  0.45291531  0.48276744     0.14500
C565        C  0.36149573  0.40273735  0.12614947     0.29900
C566        C  0.35448177  0.43357376  0.11341729    -0.36400
C567        C  0.33241618  0.42920759  0.09435162     0.15900
C568        C  0.31867176  0.39661587  0.08790016     0.21700
C569        C  0.32527875  0.36576344  0.10086139    -0.34500
C570        C  0.34694061  0.37025013  0.12021435     0.15800
O571        O  0.38054476  0.40113000  0.14499156    -0.26600
C572        C  0.37799752  0.36724256  0.15145842     0.05600
C573        C  0.35726947  0.34675262  0.13672565    -0.31400
O574        O  0.29984616  0.39859706  0.06889296    -0.23300
C575        C  0.30095576  0.43307110  0.06343917    -0.03300
C576        C  0.32084085  0.45330200  0.07870457    -0.17700
H577        H  0.36527194  0.45927915  0.11816099     0.20300
H578        H  0.31420112  0.34012486  0.09624406     0.18700
H579        H  0.35008439  0.31892538  0.13831980     0.18600
H580        H  0.32684391  0.48149097  0.07790917     0.14500
C581        C  0.50097824  0.26988031  0.44641561     0.29900
C582        C  0.51011703  0.28849969  0.42656522    -0.36400
C583        C  0.48329792  0.29143619  0.41012902     0.15900
C584        C  0.45000313  0.27645054  0.41283824     0.21700
C585        C  0.44077255  0.25801820  0.43278738    -0.34500
C586        C  0.46740252  0.25567932  0.44944128     0.15800
O587        O  0.02203705  0.26380996  0.46388037    -0.26600
C588        C  0.00158131  0.24595714  0.47841884     0.05600
C589        C  0.46726810  0.24016283  0.47043982    -0.31400
O590        O  0.42928419  0.28188768  0.39507820    -0.23300
C591        C  0.44945295  0.30095083  0.38098312    -0.03300
C592        C  0.48326977  0.30785168  0.38946710    -0.17700
H593        H  0.53628115  0.29996386  0.42414209     0.20300
H594        H  0.41465338  0.24643958  0.43517614     0.18700
H595        H  0.44582958  0.22581032  0.47865814     0.18600
H596        H  0.50475227  0.32243338  0.38145112     0.14500
C597        C  0.43614065  0.81349380  0.35886969     0.80400
N598        N  0.40761517  0.79725606  0.34929125    -0.77900
C599        C  0.39522924  0.80822902  0.32876672     0.82800
N600        N  0.41105725  0.83592570  0.31793717    -0.77900
C601        C  0.43958728  0.85231289  0.32746563     0.82900
N602        N  0.45223967  0.84095429  0.34788240    -0.79600
C603        C  0.39198883  0.85498390  0.17347028     0.80400
N604        N  0.37508796  0.82844318  0.18501256    -0.77900
C605        C  0.38344819  0.82178459  0.20715227     0.82800
N606        N  0.40848106  0.84190828  0.21773294    -0.77900
C607        C  0.42653626  0.86735751  0.20612369     0.82900
N608        N  0.41774280  0.87437611  0.18411348    -0.79600
C609        C  0.17138124  0.85580744  0.36644557     0.80400
N610        N  0.18895580  0.82993262  0.35477500    -0.77900
C611        C  0.17965653  0.82174725  0.33308381     0.82800
N612        N  0.15338060  0.84042882  0.32269182    -0.77900
C613        C  0.13468892  0.86548345  0.33439928     0.82900
N614        N  0.14387747  0.87335629  0.35630629    -0.79600
C615        C  0.43944447  0.62618123  0.18180253     0.80400
N616        N  0.45449829  0.59703927  0.19144858    -0.77900
C617        C  0.44208407  0.58425693  0.21160052     0.82800
N618        N  0.41389182  0.60030340  0.22191489    -0.77900
C619        C  0.39868801  0.62947995  0.21225169     0.82900
N620        N  0.41171359  0.64245189  0.19232787    -0.79600
C621        C  0.45578259  0.88298421  0.31618267     0.42600
N622        N  0.98888764  0.92821156  0.31010613     0.01500
C623        C  0.99118795  0.53518260  0.21384975    -0.06400
H624        H  0.99894930  0.90214172  0.19508833     0.07000
C625        C  0.11828528  0.90099019  0.24416515    -0.06700
Co626      Co  0.46640139  0.96852393  0.26832971     0.74200
N627        N  0.99286474  0.93062554  0.22695373    -0.25900
Co628      Co  0.03403221  0.96807445  0.22841352     0.74100
C629        C  0.10628002  0.88401162  0.22319725     0.42700
N630        N  0.09322719  0.92822471  0.29798733     0.01100
N631        N  0.07249482  0.92834990  0.23035205     0.01200
N632        N  0.44707688  0.53503496  0.24023965    -0.46800
H633        H  0.42121325  0.89459824  0.28466310     0.07000
N634        N  0.46777649  0.93024343  0.24268508     0.01500
N635        N  0.07498107  0.50574137  0.23019819     0.01200
C636        C  0.11326761  0.54598501  0.22193755     0.42800
N637        N  0.06828456  0.92884228  0.31380657    -0.25400
C638        C  0.44263695  0.53325374  0.29727873    -0.06300
N639        N  0.98392249  0.90127374  0.32430315    -0.46500
N640        N  0.08406971  0.52889273  0.21413180    -0.46700
C641        C  0.45256533  0.54856154  0.31914682     0.42600
N642        N  0.46959099  0.50827459  0.24341494     0.01500
N643        N  0.06725374  0.50614168  0.31349870    -0.25400
N644        N  0.46547268  0.92880684  0.29328905    -0.25900
N645        N  0.09310854  0.50638122  0.29823955     0.01100
H646        H  0.05522215  0.53967893  0.34245590     0.07000
H647        H  0.14537538  0.53532532  0.25453193     0.07100
N648        N  0.99555405  0.50785403  0.22822563    -0.25900
N649        N  0.09582367  0.92824123  0.24722871    -0.25500
N650        N  0.98826276  0.50587828  0.31126534     0.01500
C651        C  0.45109161  0.89072151  0.21856461     0.42900
C652        C  0.07653638  0.90466826  0.32990679    -0.06800
N653        N  0.09742680  0.50573958  0.24749781    -0.25500
H654        H  0.14062623  0.89441764  0.25499335     0.07000
N655        N  0.44229928  0.90687716  0.23829643    -0.46800
H656        H  0.06211087  0.90031870  0.34562342     0.07000
C657        C  0.10419672  0.55089972  0.31999220     0.42700
C658        C  0.44333312  0.90105890  0.29571289    -0.06300
Co659      Co  0.02797282  0.96716906  0.31264877     0.73800
N660        N  0.11836727  0.90445171  0.30221506    -0.46500
C661        C  0.45917460  0.55307813  0.22189953     0.43000
N662        N  0.98060991  0.52988762  0.32714457    -0.46500
Co663      Co  0.09548863  0.96716901  0.27273807     0.73900
C664        C  0.12224908  0.53069787  0.24396018    -0.06800
C665        C  0.98438087  0.90672429  0.21072664    -0.06400
N666        N  0.46586304  0.50678176  0.29396370    -0.25900
N667        N  0.07790417  0.90233557  0.21544523    -0.46700
H668        H  0.00807333  0.54140148  0.19945314     0.07000
C669        C  0.07203885  0.53328741  0.32804939    -0.06800
Cl670      Cl  0.03098312  0.96766370  0.27051148    -0.49800
C671        C  0.10954357  0.88817738  0.32189125     0.42800
H672        H  0.42002018  0.53924021  0.28654336     0.07000
N673        N  0.11591131  0.53284883  0.30151417    -0.46500
C674        C  0.12698836  0.81357107  0.18096451     0.80400
N675        N  0.11084724  0.84169006  0.19134461    -0.77900
C676        C  0.12291609  0.85360277  0.21179613     0.82800
N677        N  0.15115454  0.83752406  0.22173417    -0.77900
C678        C  0.16730480  0.80946023  0.21155312     0.82900
N679        N  0.15522340  0.79742701  0.19114549    -0.79600
C680        C  0.39558231  0.57996890  0.36623597     0.80400
N681        N  0.42229047  0.56307009  0.35487976    -0.77900
C682        C  0.42921603  0.57125743  0.33278302     0.82800
N683        N  0.40915254  0.59600644  0.32201108    -0.77900
C684        C  0.38332725  0.61393938  0.33331326     0.81700
N685        N  0.37603535  0.60541525  0.35535898    -0.79600
C686        C  0.12655790  0.62484675  0.35935017     0.80400
N687        N  0.10990310  0.59621376  0.34995404    -0.77900
C688        C  0.12186463  0.58205490  0.33001837     0.82800
N689        N  0.15043282  0.59673926  0.31942706    -0.77900
C690        C  0.16698394  0.62549348  0.32863847     0.82900
N691        N  0.15509781  0.63938707  0.34861698    -0.79600
C692        C  0.16855447  0.57939985  0.17433862     0.80400
N693        N  0.14361141  0.56066996  0.18614449    -0.77900
C694        C  0.13687316  0.56859600  0.20833840     0.82800
N695        N  0.15595730  0.59445142  0.21888229    -0.77900
C696        C  0.17997863  0.61405111  0.20705761     0.82900
N697        N  0.18645236  0.60634827  0.18481867    -0.79600
C698        C  0.36115645  0.79806590  0.22092345     0.42600
N699        N  0.31982352  0.76092068  0.22917108     0.01500
C700        C  0.21773784  0.76370220  0.32818203    -0.06400
H701        H  0.35284949  0.74209750  0.34143821     0.07000
C702        C  0.34495655  0.62761964  0.29791694    -0.06700
Co703      Co  0.28142393  0.78237694  0.27163667     0.74200
N704        N  0.31962174  0.75400077  0.31242813    -0.25900
Co705      Co  0.28056240  0.71499426  0.31210164     0.74100
C706        C  0.35943190  0.63687639  0.32010766     0.42700
N707        N  0.32175643  0.65606571  0.24343925     0.01100
N708        N  0.31881559  0.67448673  0.31139546     0.01200
N709        N  0.21843510  0.80579135  0.30065945    -0.46800
H710        H  0.35096145  0.83077743  0.25340727     0.07000
N711        N  0.32022116  0.77962006  0.29699295     0.01500
N712        N  0.24154863  0.67587031  0.31001705     0.01200
C713        C  0.19758877  0.64152952  0.31710832     0.42800
N714        N  0.32128469  0.68179788  0.22808003    -0.25400
C715        C  0.21547268  0.80547243  0.24329555    -0.06300
N716        N  0.34332086  0.76925417  0.21313496    -0.46500
N717        N  0.21530423  0.67046469  0.32467190    -0.46700
C718        C  0.19806593  0.79308114  0.22259880     0.42600
N719        N  0.24240552  0.78066185  0.29673614     0.01500
N720        N  0.24412103  0.67964485  0.22699700    -0.25400
N721        N  0.32018892  0.78353819  0.24639273    -0.25900
N722        N  0.24369393  0.65471498  0.24283537     0.01100
H723        H  0.21472918  0.68616051  0.19558060     0.07000
H724        H  0.20923679  0.60641695  0.28574872     0.07100
N725        N  0.24254129  0.75563230  0.31251655    -0.25900
N726        N  0.31969721  0.65195416  0.29411899    -0.25500
N727        N  0.24240543  0.75927243  0.22954080     0.01500
C728        C  0.36457447  0.79052677  0.31858505     0.42900
C729        C  0.34913197  0.67788105  0.21410209    -0.06800
N730        N  0.24223198  0.65206522  0.29339593    -0.25500
H731        H  0.35036513  0.60459952  0.28735234     0.07000
N732        N  0.34686681  0.80219958  0.30006100    -0.46800
H733        H  0.35558849  0.69488653  0.19980487     0.07000
C734        C  0.20305027  0.63878302  0.21940949     0.42700
C735        C  0.34581160  0.80767117  0.24286777    -0.06300
Co736      Co  0.28180981  0.72040871  0.22791339     0.73800
N737        N  0.34909904  0.63410086  0.24071702    -0.46500
C738        C  0.20136070  0.79659855  0.31997765     0.43000
N739        N  0.21613155  0.76445686  0.21484520    -0.46500
Co740      Co  0.28189977  0.65300370  0.26837225     0.73900
C741        C  0.21524821  0.62915900  0.29642313    -0.06800
C742        C  0.34669315  0.75872792  0.32691371    -0.06400
N743        N  0.24264733  0.78293841  0.24624183    -0.25900
N744        N  0.34169301  0.66587347  0.32776025    -0.46700
H745        H  0.21282262  0.74918326  0.34379009     0.07000
C746        C  0.21956352  0.67156645  0.21116644    -0.06800
Cl747      Cl  0.28138423  0.71769044  0.27001716    -0.49800
C748        C  0.36750018  0.64646901  0.22258462     0.42800
H749        H  0.20905510  0.82793166  0.25412063     0.07000
N750        N  0.21963623  0.62974530  0.23890051    -0.46500
C751        C  0.27201383  0.95392178  0.49799380     0.02400
C752        C  0.30299971  0.97539203  0.49803291     0.02400
C753        C  0.31795995  0.98585659  0.51891641    -0.18100
C754        C  0.30216869  0.97589182  0.53965607     0.02400
C755        C  0.27195682  0.95360600  0.53960013     0.02400
C756        C  0.25694816  0.94318239  0.51882539    -0.18100
H757        H  0.23391581  0.92575770  0.51888574     0.04400
H758        H  0.34063585  0.50368245  0.51904349     0.04400
C759        C  0.04103686  0.73694892  0.04005945     0.02400
C760        C  0.01916121  0.70643638  0.04004829     0.02400
C761        C  0.50825353  0.69161829  0.01921582    -0.18100
C762        C  0.01816403  0.70737882  0.99843482     0.02400
C763        C  0.04053966  0.73773464  0.99856842     0.02400
C764        C  0.05136154  0.75244297  0.01941010    -0.18100
H765        H  0.06911826  0.77524139  0.01956652     0.04400
H766        H  0.49061848  0.66873681  0.01920352     0.04400
C767        C  0.04627246  0.71071666  0.49999676     0.02400
C768        C  0.01558185  0.73223081  0.49998509     0.02400
C769        C  0.00009280  0.74271237  0.52068135    -0.18100
C770        C  0.01545753  0.73294405  0.54156224     0.02400
C771        C  0.04643485  0.71138465  0.54160855     0.02400
C772        C  0.06170083  0.70076587  0.52078242    -0.18100
H773        H  0.08475186  0.68338526  0.52075658     0.04400
H774        H  0.47692681  0.75993518  0.52051338     0.04400
C775        C  0.26471139  0.97919671  0.04213834     0.02400
C776        C  0.28547379  0.94772179  0.04207385     0.02400
C777        C  0.29467916  0.93198428  0.02116236    -0.18100
C778        C  0.28461761  0.94777063  0.00044380     0.02400
C779        C  0.26376102  0.97905613  0.00050882     0.02400
C780        C  0.25434557  0.99471263  0.02138570    -0.18100
H781        H  0.23778791  0.51836246  0.02153780     0.04400
H782        H  0.31167217  0.90862316  0.02098188     0.04400
C783        C  0.37270722  0.87581188  0.85898713     0.80400
N784        N  0.39964293  0.89369764  0.84860368    -0.77900
C785        C  0.41213327  0.88264983  0.82805661     0.82800
N786        N  0.39723459  0.85391470  0.81773047    -0.77900
C787        C  0.36990392  0.83629956  0.82784815     0.82900
N788        N  0.35791835  0.84706607  0.84858437    -0.79600
C789        C  0.41838108  0.61261813  0.86550880     0.80400
N790        N  0.43646787  0.58608110  0.85462148    -0.77900
C791        C  0.42873552  0.57795268  0.83257724     0.82800
N792        N  0.40321020  0.59654817  0.82149481    -0.77900
C793        C  0.38413364  0.62199073  0.83239059     0.82900
N794        N  0.39224574  0.63060089  0.85428717    -0.79600
C795        C  0.18478710  0.56359396  0.85902833     0.80400
N796        N  0.15726822  0.54758649  0.84796976    -0.77900
C797        C  0.14552626  0.56067348  0.82773414     0.82800
N798        N  0.16154538  0.58959153  0.81842396    -0.77900
C799        C  0.18921392  0.60554150  0.82916431     0.82900
N800        N  0.20066001  0.59266949  0.84958290    -0.79600
C801        C  0.14017726  0.83290880  0.86625945     0.80400
N802        N  0.16543035  0.81413730  0.85479694    -0.77900
C803        C  0.17234683  0.82130998  0.83255803     0.82800
N804        N  0.15297114  0.84646385  0.82151696    -0.77900
C805        C  0.12846597  0.86614388  0.83298758     0.82900
N806        N  0.12200567  0.85925596  0.85536966    -0.79600
C807        C  0.14298517  0.60773090  0.67239024     0.80400
N808        N  0.16900529  0.62561286  0.68381174    -0.77900
C809        C  0.17570863  0.61794907  0.70604814     0.82800
N810        N  0.15613936  0.59273019  0.71682836    -0.77900
C811        C  0.13123399  0.57378645  0.70535905     0.82900
N812        N  0.12416051  0.58180932  0.68325195    -0.79600
C813        C  0.37586235  0.56765832  0.67964532     0.80400
N814        N  0.35808919  0.59419388  0.69043200    -0.77900
C815        C  0.36987728  0.60677737  0.71078124     0.82800
N816        N  0.39924006  0.59220428  0.72062340    -0.77900
C817        C  0.41663606  0.56511427  0.70998198     0.82900
N818        N  0.40508834  0.55327133  0.68943275    -0.79600
C819        C  0.35364303  0.80563657  0.81644745     0.42600
N820        N  0.31941918  0.76154069  0.80929142     0.01500
C821        C  0.31936961  0.65423205  0.71306011    -0.06400
H822        H  0.30913795  0.78813102  0.69447029     0.07000
C823        C  0.19055616  0.78703013  0.74274707    -0.06700
Co824      Co  0.34269164  0.72178075  0.76746471     0.74200
N825        N  0.31581263  0.75926890  0.72608505    -0.25900
Co826      Co  0.27557405  0.72095854  0.72709304     0.74100
C827        C  0.20315911  0.80480169  0.72216435     0.42700
N828        N  0.21457982  0.75898717  0.79621174     0.01100
N829        N  0.23651787  0.75999391  0.72891252     0.01200
N830        N  0.36308131  0.65530890  0.73968771    -0.46800
H831        H  0.38835645  0.79450032  0.78490292     0.07000
N832        N  0.34064026  0.76017521  0.74195106     0.01500
N833        N  0.23553087  0.68249918  0.72825483     0.01200
C834        C  0.19873139  0.64105380  0.71971985     0.42800
N835        N  0.23954795  0.75917124  0.81202031    -0.25400
C836        C  0.36896243  0.65892293  0.79675730    -0.06300
N837        N  0.32493570  0.78764543  0.82410208    -0.46500
N838        N  0.22738373  0.65916395  0.71205144    -0.46700
C839        C  0.36007280  0.64421755  0.81892280     0.42600
N840        N  0.34035790  0.68197801  0.74250949     0.01500
N841        N  0.24242485  0.68200859  0.81185287    -0.25400
N842        N  0.34301396  0.76124194  0.79256831    -0.25900
N843        N  0.21674279  0.68087537  0.79647687     0.01100
H844        H  0.25476329  0.64963832  0.84122489     0.07000
H845        H  0.16596958  0.65051596  0.75224697     0.07100
N846        N  0.31466421  0.68190152  0.72714774    -0.25900
N847        N  0.21283230  0.75952610  0.74558880    -0.25500
N848        N  0.32176814  0.68419849  0.81034658     0.01500
C849        C  0.35626589  0.80074692  0.71826637     0.42900
C850        C  0.23081483  0.78347773  0.82790540    -0.06800
N851        N  0.21295616  0.68169661  0.74547762    -0.25500
H852        H  0.16817852  0.79352231  0.75358467     0.07000
N853        N  0.36538228  0.78444432  0.73787450    -0.46800
H854        H  0.24513418  0.78845045  0.84358092     0.07000
C855        C  0.20634444  0.63671706  0.81872216     0.42700
C856        C  0.36574125  0.78833132  0.79561035    -0.06300
Co857      Co  0.28082420  0.72182766  0.81135648     0.73800
N858        N  0.18890562  0.78229982  0.80027121    -0.46500
C859        C  0.35129986  0.63669404  0.72149706     0.43000
N860        N  0.33088601  0.66145657  0.82666273    -0.46500
Co861      Co  0.21355356  0.72016221  0.77094842     0.73900
C862        C  0.18901581  0.65597461  0.74175867    -0.06800
C863        C  0.32368520  0.78372751  0.71012174    -0.06400
N864        N  0.34421648  0.68379129  0.79304889    -0.25900
N865        N  0.23160408  0.78658769  0.71439777    -0.46700
H866        H  0.30272068  0.64752833  0.69863834     0.07000
C867        C  0.23804512  0.65517893  0.82664900    -0.06800
Cl868      Cl  0.27813581  0.72120144  0.76923048    -0.49800
C869        C  0.19752550  0.79910936  0.81979659     0.42800
H870        H  0.39208962  0.65408765  0.78621153     0.07000
N871        N  0.19444125  0.65401344  0.79998096    -0.46500
C872        C  0.41635583  0.83376680  0.67306538     0.80400
N873        N  0.43474846  0.85930049  0.68463568    -0.77900
C874        C  0.42611285  0.86723172  0.70656544     0.82800
N875        N  0.40008647  0.84846222  0.71717591    -0.77900
C876        C  0.38095647  0.82366463  0.70564236     0.82900
N877        N  0.38921618  0.81622544  0.68358505    -0.79600
C878        C  0.18215298  0.87480582  0.67967938     0.80400
N879        N  0.19888343  0.84737729  0.69041251    -0.77900
C880        C  0.18654192  0.83524091  0.71076036     0.82800
N881        N  0.15770741  0.85071362  0.72041445    -0.77900
C882        C  0.14103150  0.87822414  0.71003210     0.82900
N883        N  0.15313264  0.89022241  0.68955952    -0.79600
C884        C  0.44860274  0.89113711  0.72015234     0.42600
N885        N  0.48936171  0.92894068  0.72859024     0.01500
C886        C  0.08982562  0.92428998  0.82848485    -0.06400
H887        H  0.45481039  0.94917384  0.84038772     0.07000
C888        C  0.46721564  0.56373958  0.79717522    -0.06700
Co889      Co  0.02732938  0.90702730  0.77113401     0.74200
N890        N  0.48861874  0.93637989  0.81172996    -0.25900
Co891      Co  0.02883480  0.97444694  0.81159162     0.74100
C892        C  0.45198500  0.55456337  0.81920229     0.42700
N893        N  0.49053431  0.53495377  0.74261928     0.01100
N894        N  0.49182289  0.51607321  0.81057060     0.01200
N895        N  0.08940931  0.88249450  0.80068553    -0.46800
H896        H  0.45861668  0.85879623  0.75269620     0.07000
N897        N  0.48794719  0.91058464  0.79637286     0.01500
N898        N  0.06915273  0.51244794  0.80960480     0.01200
C899        C  0.11485674  0.54467814  0.81623439     0.42800
N900        N  0.49029093  0.50909517  0.72728909    -0.25400
C901        C  0.09301499  0.88252034  0.74222599    -0.06300
N902        N  0.46625556  0.92013858  0.71239428    -0.46500
N903        N  0.09582369  0.51680491  0.82411162    -0.46700
C904        C  0.11009640  0.89442443  0.72120868     0.42600
N905        N  0.06601893  0.90806380  0.79653976     0.01500
N906        N  0.06702991  0.50889338  0.72627863    -0.25400
N907        N  0.48886737  0.90636810  0.74581779    -0.25900
N908        N  0.06830168  0.53380217  0.74215934     0.01100
H909        H  0.09499942  0.50222169  0.69432054     0.07000
H910        H  0.10453335  0.57976321  0.78475393     0.07100
N911        N  0.06579382  0.93294056  0.81245354    -0.25900
N912        N  0.49191560  0.53876283  0.79339853    -0.25500
N913        N  0.06667350  0.92916745  0.72880528     0.01500
C914        C  0.44256975  0.90075230  0.81754920     0.42900
C915        C  0.46381878  0.51480932  0.71256631    -0.06800
N916        N  0.06945369  0.53599805  0.79285947    -0.25500
H917        H  0.46255625  0.58697178  0.78668655     0.07000
N918        N  0.46075836  0.88854578  0.79928550    -0.46800
H919        H  0.45750069  0.49841361  0.69793570     0.07000
C920        C  0.10818758  0.54938021  0.71804897     0.42700
C921        C  0.46356423  0.88196212  0.74219993    -0.06300
Co922      Co  0.02828248  0.96889827  0.72729298     0.73800
N923        N  0.46489550  0.55867136  0.73922881    -0.46500
C924        C  0.10578892  0.89111531  0.82037962     0.43000
N925        N  0.09240066  0.92340123  0.71377746    -0.46500
Co926      Co  0.03002500  0.53655582  0.76774968     0.73900
C927        C  0.09751678  0.55757170  0.79561942    -0.06800
C928        C  0.46096949  0.93233279  0.82593501    -0.06400
N929        N  0.06634265  0.90563452  0.74556786    -0.25900
N930        N  0.46885346  0.52509667  0.82679793    -0.46700
H931        H  0.09455045  0.93871126  0.84417396     0.07000
C932        C  0.09109285  0.51671488  0.71007542    -0.06800
Cl933      Cl  0.02859267  0.97169382  0.76943284    -0.49800
C934        C  0.44712487  0.54747250  0.72054816     0.42800
H935        H  0.09922223  0.85989257  0.75292113     0.07000
N936        N  0.09243736  0.55855987  0.73783647    -0.46500
C937        C  0.22597799  0.49604358  0.94681091     0.29900
C938        C  0.20776183  0.48768125  0.92658921    -0.36400
C939        C  0.20522341  0.51512527  0.91041757     0.15900
C940        C  0.22005819  0.54837876  0.91373794     0.21700
C941        C  0.23728054  0.05709923  0.93423650    -0.34500
C942        C  0.23989007  0.52960947  0.95047725     0.15800
O943        O  0.23226220  0.47412124  0.96391492    -0.26600
C944        C  0.24974199  0.99399257  0.97889641     0.05600
C945        C  0.25489654  0.02890718  0.97160102    -0.31400
O946        O  0.21528164  0.56971147  0.89608345    -0.23300
C947        C  0.19675656  0.55000749  0.88136432    -0.03300
C948        C  0.18960170  0.51585989  0.88944593    -0.17700
H949        H  0.19652539  0.46151857  0.92361798     0.20300
H950        H  0.24868277  0.08319035  0.93718151     0.18700
H951        H  0.26894466  0.05014345  0.98026702     0.18600
H952        H  0.17527459  0.49459163  0.88098325     0.14500
C953        C  0.33628591  0.88504160  0.91368246     0.29900
C954        C  0.31822370  0.87436086  0.93350992    -0.36400
C955        C  0.31379108  0.90066233  0.95030725     0.15900
C956        C  0.32595591  0.93512717  0.94757917     0.21700
C957        C  0.34456685  0.94559194  0.92800354    -0.34500
C958        C  0.34931373  0.91925652  0.91136470     0.15800
O959        O  0.34254248  0.86522114  0.89553126    -0.26600
C960        C  0.36015428  0.88695815  0.88159057     0.05600
C961        C  0.36532255  0.92083480  0.89059931    -0.31400
O962        O  0.31745803  0.95587320  0.96481926    -0.23300
C963        C  0.29997525  0.93442412  0.97894792    -0.03300
C964        C  0.29707280  0.89962931  0.97095751    -0.17700
H965        H  0.30796243  0.84759796  0.93556049     0.20300
H966        H  0.35423896  0.97254684  0.92577320     0.18700
H967        H  0.37836205  0.94347390  0.88278045     0.18600
H968        H  0.28366816  0.87730755  0.97887688     0.14500
C969        C  0.09852765  0.67983045  0.58708302     0.29900
C970        C  0.12975595  0.67359370  0.59965870    -0.36400
C971        C  0.12605793  0.65191039  0.61903962     0.15900
C972        C  0.09394392  0.63703111  0.62535910     0.21700
C973        C  0.06269765  0.64373745  0.61302787    -0.34500
C974        C  0.06628628  0.66581189  0.59391513     0.15800
O975        O  0.09591733  0.69833416  0.56801565    -0.26600
C976        C  0.06142120  0.69673299  0.56290864     0.05600
C977        C  0.04172260  0.67692067  0.57845364    -0.31400
O978        O  0.09630261  0.61806885  0.64418672    -0.23300
C979        C  0.13028305  0.62103461  0.65024816    -0.03300
C980        C  0.15011069  0.64190077  0.63526475    -0.17700
H981        H  0.15510492  0.68489111  0.59470883     0.20300
H982        H  0.03729249  0.63266888  0.61807499     0.18700
H983        H  0.01364282  0.67053880  0.57789417     0.18600
H984        H  0.17782939  0.64948321  0.63656281     0.14500
C985        C  0.46666838  0.80580499  0.62599920     0.29900
C986        C  0.49808140  0.79962838  0.61364720    -0.36400
C987        C  0.49475864  0.77830620  0.59410032     0.15900
C988        C  0.46261783  0.76451784  0.58690351     0.21700
C989        C  0.43123004  0.77029840  0.59944409    -0.34500
C990        C  0.43466065  0.79118788  0.61923287     0.15800
O991        O  0.46398459  0.82404428  0.64516418    -0.26600
C992        C  0.42987171  0.82088425  0.65094620     0.05600
C993        C  0.41034644  0.80057975  0.63547354    -0.31400
O994        O  0.46552435  0.74635872  0.56767628    -0.23300
C995        C  0.00011029  0.74790417  0.56278363    -0.03300
C996        C  0.01955649  0.76744871  0.57864179    -0.17700
H997        H  0.02341805  0.81046195  0.61901464     0.20300
H998        H  0.40595868  0.75914330  0.59420751     0.18700
H999        H  0.38257471  0.79305785  0.63641237     0.18600
H1000       H  0.04769832  0.77359292  0.57839682     0.14500
C1001       C  0.07323914  0.78973562  0.95343294     0.29900
C1002       C  0.07884911  0.82079872  0.94056655    -0.36400
C1003       C  0.10002013  0.81692296  0.92098408     0.15900
C1004       C  0.11523056  0.78484975  0.91479200     0.21700
C1005       C  0.10949125  0.75379511  0.92758498    -0.34500
C1006       C  0.08767747  0.75750365  0.94683195     0.15800
O1007       O  0.05422879  0.78713929  0.97228630    -0.26600
C1008       C  0.05586695  0.75264280  0.97747137     0.05600
C1009       C  0.07633992  0.73293873  0.96226376    -0.31400
O1010       O  0.13286836  0.78689034  0.89541085    -0.23300
C1011       C  0.12866046  0.82060429  0.88890825    -0.03300
C1012       C  0.10842150  0.84057505  0.90416165    -0.17700
H1013       H  0.06697900  0.84604892  0.94525106     0.20300
H1014       H  0.12057803  0.72833934  0.92257227     0.18700
H1015       H  0.08266008  0.70480941  0.96289827     0.18600
H1016       H  0.09996047  0.86803937  0.90259421     0.14500
C1017       C  0.48615484  0.65648336  0.95246835     0.29900
C1018       C  0.48055100  0.62555311  0.93945923    -0.36400
C1019       C  0.45995129  0.62968234  0.91968658     0.15900
C1020       C  0.44533917  0.66192095  0.91333377     0.21700
C1021       C  0.45128250  0.69297148  0.92620663    -0.34500
C1022       C  0.47242322  0.68894763  0.94576886     0.15800
O1023       O  0.00430339  0.65859754  0.97167848    -0.26600
C1024       C  0.50284423  0.69300936  0.97711192     0.05600
C1025       C  0.48336575  0.71318992  0.96160765    -0.31400
O1026       O  0.42746202  0.65977492  0.89401340    -0.23300
C1027       C  0.43094111  0.62579334  0.88777576    -0.03300
C1028       C  0.45101434  0.60585548  0.90307566    -0.17700
H1029       H  0.49173797  0.60009312  0.94431509     0.20300
H1030       H  0.44053037  0.71854343  0.92117572     0.18700
H1031       H  0.47743398  0.74140823  0.96228605     0.18600
H1032       H  0.45866408  0.57811025  0.90180842     0.14500
C1033       C  0.36543409  0.53155557  0.62514840     0.29900
C1034       C  0.37621212  0.01518250  0.60473166    -0.36400
C1035       C  0.34919044  0.00808893  0.58891258     0.15900
C1036       C  0.31386740  0.51598586  0.59319279     0.21700
C1037       C  0.30309170  0.53243145  0.61350851    -0.34500
C1038       C  0.33021830  0.54009183  0.62909786     0.15800
O1039       O  0.38613584  0.53998859  0.64243857    -0.26600
C1040       C  0.36393715  0.55460841  0.65743431     0.05600
C1041       C  0.32885155  0.55557994  0.65004618    -0.31400
O1042       O  0.29283745  0.50579607  0.57650967    -0.23300
C1043       C  0.31506855  0.99160298  0.56115243    -0.03300
C1044       C  0.35050779  0.99274376  0.56787037    -0.17700
H1045       H  0.40377823  0.00861289  0.60142249     0.20300
H1046       H  0.27547464  0.53861758  0.61696294     0.18700
H1047       H  0.30570908  0.56553833  0.65901869     0.18600
H1048       H  0.37359638  0.98281212  0.55884197     0.14500
C1049       C  0.22299830  0.93168774  0.58875426     0.29900
C1050       C  0.19474704  0.93369419  0.60440068    -0.36400
C1051       C  0.19871440  0.91382891  0.62452531     0.15900
C1052       C  0.22824176  0.89303591  0.62884221     0.21700
C1053       C  0.25657459  0.89116543  0.61326315    -0.34500
C1054       C  0.25280462  0.91138124  0.59328735     0.15800
O1055       O  0.22523374  0.94866857  0.56908379    -0.26600
C1056       C  0.25702781  0.93934215  0.56105835     0.05600
C1057       C  0.27538206  0.91626757  0.57539301    -0.31400
O1058       O  0.22633110  0.87658267  0.64868905    -0.23300
C1059       C  0.19530406  0.88719216  0.65733632    -0.03300
C1060       C  0.17700873  0.91045411  0.64304380    -0.17700
H1061       H  0.17146077  0.94990900  0.60121477     0.20300
H1062       H  0.28008202  0.87533405  0.61659049     0.18700
H1063       H  0.30170086  0.90513225  0.57302379     0.18600
H1064       H  0.15137665  0.92287226  0.64584675     0.14500
C1065       C  0.19238313  0.53014522  0.12596753     0.29900
C1066       C  0.19509635  0.49934867  0.11248858    -0.36400
C1067       C  0.21870750  0.50125037  0.09401263     0.15900
C1068       C  0.23797329  0.53154353  0.08889001     0.21700
C1069       C  0.23563485  0.56220725  0.10257338    -0.34500
C1070       C  0.21223918  0.56018525  0.12120434     0.15800
O1071       O  0.17296082  0.53370774  0.14456187    -0.26600
C1072       C  0.18053624  0.56640816  0.15192300     0.05600
C1073       C  0.20483564  0.58414232  0.13803932    -0.31400
O1074       O  0.25723903  0.52786365  0.07020194    -0.23300
C1075       C  0.25066383  0.49456664  0.06357526    -0.03300
C1076       C  0.22703180  0.47670919  0.07776969    -0.17700
H1077       H  0.18001607  0.47548232  0.11623575     0.20300
H1078       H  0.25098191  0.58595224  0.09895934     0.18700
H1079       H  0.21645415  0.61026000  0.14053564     0.18600
H1080       H  0.21663165  0.44996411  0.07587609     0.14500
C1081       C  0.08304528  0.64738905  0.41031482     0.29900
C1082       C  0.05702689  0.64473124  0.42738058    -0.36400
C1083       C  0.06171565  0.66683048  0.44644540     0.15900
C1084       C  0.08994998  0.69015077  0.44860339     0.21700
C1085       C  0.11565920  0.69327109  0.43132008    -0.34500
C1086       C  0.11106544  0.67099644  0.41227653     0.15800
O1087       O  0.08459339  0.62823755  0.39145949    -0.26600
C1088       C  0.11391835  0.63979731  0.38111827     0.05600
C1089       C  0.13139107  0.66651562  0.39324423    -0.31400
O1090       O  0.08917988  0.70801732  0.46803529    -0.23300
C1091       C  0.06010085  0.69584729  0.47839717    -0.03300
C1092       C  0.04187534  0.67041330  0.46570591    -0.17700
H1093       H  0.03493165  0.62633872  0.42603768     0.20300
H1094       H  0.13791366  0.71145266  0.43274153     0.18700
H1095       H  0.15586838  0.68011569  0.38887476     0.18600
H1096       H  0.01726224  0.65699442  0.46997963     0.14500
C1097       C  0.35382645  0.50693474  0.45195208     0.29900
C1098       C  0.38407597  0.51112729  0.43805546    -0.36400
C1099       C  0.38035157  0.53438686  0.41941005     0.15900
C1100       C  0.34921954  0.55264808  0.41500968     0.21700
C1101       C  0.31901972  0.54824399  0.42876388    -0.34500
C1102       C  0.32250979  0.52456408  0.44708239     0.15800
O1103       O  0.35133095  0.98680911  0.47026853    -0.26600
C1104       C  0.31764019  0.99099184  0.47687148     0.05600
C1105       C  0.29848580  0.51421813  0.46311609    -0.31400
O1106       O  0.35113540  0.57227197  0.39641608    -0.23300
C1107       C  0.38385639  0.56647333  0.38860324    -0.03300
C1108       C  0.40326354  0.54300420  0.40219783    -0.17700
H1109       H  0.40874379  0.99710262  0.44131299     0.20300
H1110       H  0.29428480  0.56192377  0.42520040     0.18700
H1111       H  0.27118778  0.52293041  0.46504544     0.18600
H1112       H  0.42987656  0.53286629  0.39936463     0.14500
C1113       C  0.08509258  0.79910013  0.12844261     0.29900
C1114       C  0.06078812  0.80562771  0.11079254    -0.36400
C1115       C  0.06238237  0.78221607  0.09218270     0.15900
C1116       C  0.08608239  0.75412747  0.09110588     0.21700
C1117       C  0.11055908  0.74775299  0.10867619    -0.34500
C1118       C  0.10906427  0.77127699  0.12723029     0.15800
O1119       O  0.08807204  0.81750237  0.14749781    -0.26600
C1120       C  0.11433294  0.80130609  0.15861134     0.05600
C1121       C  0.12844081  0.77238380  0.14681055    -0.31400
O1122       O  0.08209323  0.73484018  0.07250312    -0.23300
C1123       C  0.05580947  0.75105593  0.06145294    -0.03300
C1124       C  0.04249976  0.78068828  0.07280387    -0.17700
H1125       H  0.04182129  0.82730320  0.11158381     0.20300
H1126       H  0.12922678  0.72580377  0.10801852     0.18700
H1127       H  0.14978935  0.75476047  0.15193997     0.18600
H1128       H  0.02071308  0.79783381  0.06779094     0.14500
C1129       C  0.48274904  0.69128753  0.09419088     0.29900
C1130       C  0.46630688  0.70086121  0.11475031    -0.36400
C1131       C  0.46237393  0.67353808  0.13078813     0.15900
C1132       C  0.47429848  0.63922777  0.12702520     0.21700
C1133       C  0.99031248  0.62949634  0.10627052    -0.34500
C1134       C  0.49381328  0.65679002  0.09005885     0.15800
O1135       O  0.48982539  0.71289936  0.07714036    -0.26600
C1136       C  0.50526356  0.69202069  0.06170679     0.05600
C1137       C  0.00823914  0.65670227  0.06868690    -0.31400
O1138       O  0.46843683  0.61813495  0.14461201    -0.23300
C1139       C  0.45215433  0.63915064  0.15965198    -0.03300
C1140       C  0.44753963  0.67385794  0.15194415    -0.17700
H1141       H  0.45734329  0.72779962  0.11804016     0.20300
H1142       H  0.99949495  0.60261838  0.10303557     0.18700
H1143       H  0.02029886  0.63462481  0.05964505     0.18600
H1144       H  0.43519819  0.69605930  0.16071268     0.14500
C1145       C  0.19190525  0.89593981  0.41900283     0.29900
C1146       C  0.18585004  0.91549164  0.43905956    -0.36400
C1147       C  0.21611181  0.92367858  0.45209693     0.15900
C1148       C  0.25008531  0.91379105  0.44573091     0.21700
C1149       C  0.25608134  0.89376839  0.42589434    -0.34500
C1150       C  0.22577343  0.88507466  0.41307658     0.15800
O1151       O  0.16774656  0.88653256  0.40374688    -0.26600
C1152       C  0.18637394  0.86874253  0.38812726     0.05600
C1153       C  0.22251712  0.86684882  0.39316295    -0.31400
O1154       O  0.27446492  0.92423295  0.46049333    -0.23300
C1155       C  0.25580082  0.94073044  0.47664652    -0.03300
C1156       C  0.21938944  0.94109774  0.47234404    -0.17700
H1157       H  0.15942824  0.92383628  0.44411773     0.20300
H1158       H  0.28251983  0.88548116  0.42082200     0.18700
H1159       H  0.24359572  0.85520882  0.38300108     0.18600
H1160       H  0.19840215  0.95211244  0.48285164     0.14500
C1161       C  0.36163470  0.90262317  0.12597934     0.29900
C1162       C  0.35457618  0.93347861  0.11327682    -0.36400
C1163       C  0.33254539  0.92912051  0.09419541     0.15900
C1164       C  0.31889031  0.89651616  0.08769482     0.21700
C1165       C  0.32555788  0.86563513  0.10061884    -0.34500
C1166       C  0.34716806  0.87011754  0.11999782     0.15800
O1167       O  0.38061087  0.90102291  0.14485027    -0.26600
C1168       C  0.37810357  0.86712338  0.15129519     0.05600
C1169       C  0.35747639  0.84661131  0.13651418    -0.31400
O1170       O  0.30004198  0.89852340  0.06869837    -0.23300
C1171       C  0.30104048  0.93302549  0.06330468    -0.03300
C1172       C  0.32088751  0.95324789  0.07859400    -0.17700
H1173       H  0.36528171  0.95919909  0.11806680     0.20300
H1174       H  0.31453597  0.83999224  0.09596870     0.18700
H1175       H  0.35033078  0.81877432  0.13808401     0.18600
H1176       H  0.32680606  0.98146065  0.07784739     0.14500
C1177       C  0.50072310  0.77009728  0.44638621     0.29900
C1178       C  0.50982579  0.78865484  0.42651275    -0.36400
C1179       C  0.48284347  0.79192322  0.41022139     0.15900
C1180       C  0.44941813  0.77729662  0.41307757     0.21700
C1181       C  0.44021522  0.75894788  0.43306205    -0.34500
C1182       C  0.46702488  0.75627626  0.44957572     0.15800
O1183       O  0.02191060  0.76380463  0.46374763    -0.26600
C1184       C  0.00144794  0.74612767  0.47836563     0.05600
C1185       C  0.46697619  0.74073816  0.47056512    -0.31400
O1186       O  0.42861379  0.78284991  0.39537372    -0.23300
C1187       C  0.44887500  0.80163071  0.38117936    -0.03300
C1188       C  0.48281220  0.80825296  0.38954154    -0.17700
H1189       H  0.53609485  0.79980555  0.42395838     0.20300
H1190       H  0.41400611  0.74763500  0.43556674     0.18700
H1191       H  0.44546641  0.72665908  0.47890013     0.18600
H1192       H  0.50440773  0.82249418  0.38140035     0.14500
C1193       C  0.93661387  0.31302090  0.35873245     0.80400
N1194       N  0.90799289  0.29690597  0.34918124    -0.77900
C1195       C  0.89537969  0.30814674  0.32877246     0.82800
N1196       N  0.91108996  0.33598940  0.31802680    -0.77900
C1197       C  0.93970840  0.35227247  0.32752381     0.82900
N1198       N  0.95257686  0.34065452  0.34783192    -0.79600
C1199       C  0.89194185  0.35508442  0.17361109     0.80400
N1200       N  0.87508284  0.32850680  0.18514041    -0.77900
C1201       C  0.88349839  0.32178488  0.20726090     0.82800
N1202       N  0.90855258  0.34188895  0.21784022    -0.77900
C1203       C  0.92657470  0.36737541  0.20623866     0.82900
N1204       N  0.91771981  0.37445443  0.18424598    -0.79600
C1205       C  0.67116894  0.35576798  0.36660987     0.80400
N1206       N  0.68882713  0.32993869  0.35494266    -0.77900
C1207       C  0.67965537  0.32181581  0.33321717     0.82800
N1208       N  0.65340648  0.34049570  0.32279845    -0.77900
C1209       C  0.63462687  0.36549017  0.33449925     0.82900
N1210       N  0.64369814  0.37331417  0.35643331    -0.79600
C1211       C  0.93911929  0.12591217  0.18160717     0.80400
N1212       N  0.95423451  0.09682162  0.19128083    -0.77900
C1213       C  0.94183913  0.08405178  0.21144293     0.82800
N1214       N  0.91361643  0.10006739  0.22174517    -0.77900
C1215       C  0.89835374  0.12919530  0.21205933     0.82900
N1216       N  0.91135545  0.14214971  0.19212264    -0.79600
C1217       C  0.95578816  0.38307501  0.31630374     0.42600
N1218       N  0.48890441  0.42828491  0.31019339     0.01500
C1219       C  0.49106820  0.03509751  0.21375071    -0.06400
H1220       H  0.49900667  0.40213002  0.19517973     0.07000
C1221       C  0.61830592  0.40099937  0.24421022    -0.06700
Co1222     Co  0.96645309  0.46858399  0.26840706     0.74200
N1223       N  0.49291061  0.43065998  0.22702735    -0.25900
Co1224     Co  0.53407770  0.46811151  0.22848077     0.74100
C1225       C  0.60629654  0.38405581  0.22323151     0.42700
N1226       N  0.59323407  0.42821532  0.29804959     0.01100
N1227       N  0.57252741  0.42838882  0.23040771     0.01200
N1228       N  0.94695718  0.03493319  0.24014745    -0.46800
H1229       H  0.92121501  0.39467882  0.28478115     0.07000
N1230       N  0.96782459  0.43028826  0.24277282     0.01500
N1231       N  0.57493886  0.00571005  0.23011812     0.01200
C1232       C  0.61327389  0.04590649  0.22185013     0.42800
N1233       N  0.56828892  0.42886422  0.31386780    -0.25400
C1234       C  0.94256044  0.03318488  0.29724028    -0.06300
N1235       N  0.48394604  0.40135209  0.32439732    -0.46500
N1236       N  0.58407120  0.02882359  0.21403734    -0.46700
C1237       C  0.95249764  0.04849251  0.31910917     0.42600
N1238       N  0.96952309  0.00822454  0.24335005     0.01500
N1239       N  0.56718112  0.00614513  0.31344102    -0.25400
N1240       N  0.96548583  0.42888399  0.29338841    -0.25900
N1241       N  0.59303039  0.00641954  0.29817747     0.01100
H1242       H  0.55508248  0.03970890  0.34237584     0.07000
H1243       H  0.64533325  0.03526960  0.25446327     0.07100
N1244       N  0.49548278  0.00780492  0.22814943    -0.25900
N1245       N  0.59585329  0.42825297  0.24728487    -0.25500
N1246       N  0.48818593  0.00580109  0.31120747     0.01500
C1247       C  0.95114902  0.39072540  0.21867668     0.42900
C1248       C  0.57651170  0.40469668  0.32997557    -0.06800
N1249       N  0.59736443  0.00572577  0.24742845    -0.25500
H1250       H  0.64064678  0.39441050  0.25503432     0.07000
N1251       N  0.94235823  0.40690295  0.23840126    -0.46800
H1252       H  0.56207825  0.40037431  0.34569251     0.07000
C1253       C  0.60403516  0.05100696  0.31990699     0.42700
C1254       C  0.94333173  0.40114959  0.29583100    -0.06300
Co1255     Co  0.52801137  0.46721502  0.31270978     0.73800
N1256       N  0.61835331  0.40442579  0.30228924    -0.46500
C1257       C  0.95901808  0.05295431  0.22178810     0.43000
N1258       N  0.48053807  0.02980982  0.32708908    -0.46500
Co1259     Co  0.59553473  0.46716138  0.27279825     0.73900
C1260       C  0.62220915  0.03065545  0.24388736    -0.06800
C1261       C  0.48443616  0.40673048  0.21081510    -0.06400
N1262       N  0.96579077  0.00671475  0.29391585    -0.25900
N1263       N  0.57793101  0.40239673  0.21548633    -0.46700
H1264       H  0.50792804  0.04129952  0.19933900     0.07000
C1265       C  0.57191902  0.03332249  0.32797802    -0.06800
Cl1266     Cl  0.53103005  0.46769127  0.27057593    -0.49800
C1267       C  0.60950554  0.38817580  0.32197020     0.42800
H1268       H  0.91994828  0.03918449  0.28650390     0.07000
N1269       N  0.61577579  0.03294830  0.30143492    -0.46500
C1270       C  0.62706228  0.31374904  0.18092293     0.80400
N1271       N  0.61090490  0.34183631  0.19132796    -0.77900
C1272       C  0.62293479  0.35367889  0.21180621     0.82800
N1273       N  0.65115012  0.33757041  0.22174649    -0.77900
C1274       C  0.66731760  0.30953699  0.21154795     0.82900
N1275       N  0.65527522  0.29756531  0.19111218    -0.79600
C1276       C  0.89569537  0.08018821  0.36622254     0.80400
N1277       N  0.92233263  0.06318998  0.35485568    -0.77900
C1278       C  0.92921466  0.07128180  0.33273822     0.82800
N1279       N  0.90918120  0.09604798  0.32195713    -0.77900
C1280       C  0.88342881  0.11408033  0.33326698     0.81700
N1281       N  0.87617931  0.10564520  0.35533361    -0.79600
C1282       C  0.62627623  0.12503091  0.35926022     0.80400
N1283       N  0.60967633  0.09635958  0.34986614    -0.77900
C1284       C  0.62163283  0.08223933  0.32991575     0.82800
N1285       N  0.65016416  0.09699282  0.31931692    -0.77900
C1286       C  0.66667282  0.12577945  0.32852829     0.82900
N1287       N  0.65477294  0.13964087  0.34851434    -0.79600
C1288       C  0.66874162  0.07929657  0.17432534     0.80400
N1289       N  0.64374456  0.06057454  0.18609263    -0.77900
C1290       C  0.63691631  0.06851586  0.20827341     0.82800
N1291       N  0.65595528  0.09438394  0.21884098    -0.77900
C1292       C  0.68002204  0.11398060  0.20705149     0.82900
N1293       N  0.68659275  0.10625432  0.18482781    -0.79600
C1294       C  0.86121302  0.29804090  0.22102040     0.42600
N1295       N  0.81981113  0.26093672  0.22922405     0.01500
C1296       C  0.71780986  0.26380506  0.32829307    -0.06400
H1297       H  0.85289348  0.24209754  0.34145579     0.07000
C1298       C  0.84500184  0.12773959  0.29789018    -0.06700
Co1299     Co  0.78139969  0.28243415  0.27168881     0.74200
N1300       N  0.81962908  0.25405525  0.31247229    -0.25900
Co1301     Co  0.78055044  0.21505676  0.31214107     0.74100
C1302       C  0.85953598  0.13702577  0.32006183     0.42700
N1303       N  0.82166522  0.15603899  0.24342978     0.01100
N1304       N  0.81880512  0.17454903  0.31140430     0.01200
N1305       N  0.71845186  0.30589705  0.30076872    -0.46800
H1306       H  0.85098580  0.33075050  0.25349800     0.07000
N1307       N  0.82021809  0.27969382  0.29705001     0.01500
N1308       N  0.74148949  0.17596140  0.31004705     0.01200
C1309       C  0.69734382  0.14178790  0.31703602     0.42800
N1310       N  0.82118963  0.18176921  0.22806907    -0.25400
C1311       C  0.71545019  0.30552749  0.24332116    -0.06300
N1312       N  0.84335556  0.26925112  0.21321093    -0.46500
N1313       N  0.71514194  0.17064967  0.32464457    -0.46700
C1314       C  0.69806174  0.29314329  0.22261175     0.42600
N1315       N  0.74239005  0.28074569  0.29681022     0.01500
N1316       N  0.74404187  0.17967878  0.22703068    -0.25400
N1317       N  0.82016709  0.28355574  0.24644690    -0.25900
N1318       N  0.74361749  0.15475061  0.24287090     0.01100
H1319       H  0.71469074  0.18613936  0.19559374     0.07000
H1320       H  0.70899768  0.10667786  0.28567966     0.07100
N1321       N  0.74255201  0.25571536  0.31259096    -0.25900
N1322       N  0.81967477  0.15201876  0.29412629    -0.25500
N1323       N  0.74238210  0.25932095  0.22958050     0.01500
C1324       C  0.86461229  0.29055673  0.31862958     0.42900
C1325       C  0.84891607  0.17772870  0.21400527    -0.06800
N1326       N  0.74216145  0.15216424  0.29342126    -0.25500
H1327       H  0.85043875  0.10474215  0.28731126     0.07000
N1328       N  0.84688117  0.30226047  0.30011861    -0.46800
H1329       H  0.85531002  0.19467747  0.19966883     0.07000
C1330       C  0.70301463  0.13876538  0.21942759     0.42700
C1331       C  0.84582563  0.30765806  0.24294761    -0.06300
Co1332     Co  0.78176085  0.22043687  0.22794634     0.73800
N1333       N  0.84889785  0.13395805  0.24062687    -0.46500
C1334       C  0.70143825  0.29671697  0.32011481     0.43000
N1335       N  0.71612854  0.26451479  0.21487048    -0.46500
Co1336     Co  0.78183969  0.15304771  0.26839710     0.73900
C1337       C  0.71507163  0.12936267  0.29638859    -0.06800
C1338       C  0.84672221  0.25875393  0.32694633    -0.06400
N1339       N  0.74261688  0.28298608  0.24628367    -0.25900
N1340       N  0.84175746  0.16598461  0.32773628    -0.46700
H1341       H  0.71293633  0.24928886  0.34390757     0.07000
C1342       C  0.71950633  0.17156876  0.21119100    -0.06800
Cl1343     Cl  0.78135052  0.21773999  0.27005312    -0.49800
C1344       C  0.86721763  0.14623951  0.22243402     0.42800
H1345       H  0.70903243  0.32799475  0.25413932     0.07000
N1346       N  0.71959206  0.12975211  0.23892591    -0.46500
C1347       C  0.77175651  0.45414292  0.49809672     0.02400
C1348       C  0.80282373  0.47548982  0.49811327     0.02400
C1349       C  0.81781770  0.48597833  0.51897981    -0.18100
C1350       C  0.80198839  0.47614025  0.53973004     0.02400
C1351       C  0.77169504  0.45396468  0.53969487     0.02400
C1352       C  0.75664684  0.44352610  0.51893532    -0.18100
H1353       H  0.73355877  0.42617462  0.51901268     0.04400
H1354       H  0.84070665  0.00365500  0.51900371     0.04400
C1355       C  0.54109249  0.23712392  0.03998393     0.02400
C1356       C  0.51916666  0.20664278  0.04000223     0.02400
C1357       C  0.00817789  0.19181701  0.01918345    -0.18100
C1358       C  0.51809560  0.20751137  0.99837733     0.02400
C1359       C  0.54058253  0.23778433  0.99848075     0.02400
C1360       C  0.55144679  0.25252611  0.01930938    -0.18100
H1361       H  0.56925938  0.27528122  0.01943615     0.04400
H1362       H  0.99049865  0.16897042  0.01919854     0.04400
C1363       C  0.54628023  0.21045762  0.50009345     0.02400
C1364       C  0.51565491  0.23206247  0.50005856     0.02400
C1365       C  0.50013981  0.24254827  0.52074976    -0.18100
C1366       C  0.51543667  0.23270697  0.54164290     0.02400
C1367       C  0.54636414  0.21107233  0.54170527     0.02400
C1368       C  0.56163003  0.20043008  0.52088609    -0.18100
H1369       H  0.58464352  0.18299954  0.52086829     0.04400
H1370       H  0.97699105  0.25980510  0.52056732     0.04400
C1371       C  0.76469438  0.47922193  0.04221974     0.02400
C1372       C  0.78544064  0.44773478  0.04218235     0.02400
C1373       C  0.79472109  0.43199151  0.02128097    -0.18100
C1374       C  0.78474293  0.44778758  0.00054729     0.02400
C1375       C  0.76391227  0.47908683  0.00058449     0.02400
C1376       C  0.75442676  0.49475530  0.02144870    -0.18100
H1377       H  0.73765967  0.01830591  0.02150435     0.04400
H1378       H  0.81169495  0.40862338  0.02112241     0.04400
C1379       C  0.87239576  0.37615442  0.85886506     0.80400
N1380       N  0.89936598  0.39402355  0.84850055    -0.77900
C1381       C  0.91194311  0.38292466  0.82798318     0.82800
N1382       N  0.89711958  0.35412854  0.81767579    -0.77900
C1383       C  0.86977167  0.33650920  0.82777401     0.82900
N1384       N  0.85768211  0.34735232  0.84847324    -0.79600
C1385       C  0.91822814  0.11244632  0.86551183     0.80400
N1386       N  0.93631192  0.08588492  0.85463966    -0.77900
C1387       C  0.92857960  0.07772071  0.83259686     0.82800
N1388       N  0.90305424  0.09631188  0.82150304    -0.77900
C1389       C  0.88398212  0.12178194  0.83238223     0.82900
N1390       N  0.89209849  0.13041623  0.85427484    -0.79600
C1391       C  0.68443302  0.06387559  0.85909258     0.80400
N1392       N  0.65700510  0.04780077  0.84799052    -0.77900
C1393       C  0.64529798  0.06085975  0.82774388     0.82800
N1394       N  0.66127590  0.08982594  0.81845609    -0.77900
C1395       C  0.68887536  0.10584026  0.82924030     0.82900
N1396       N  0.70027393  0.09298953  0.84967549    -0.79600
C1397       C  0.64012527  0.33282616  0.86611004     0.80400
N1398       N  0.66544852  0.31416212  0.85464573    -0.77900
C1399       C  0.67243998  0.32147927  0.83243754     0.82800
N1400       N  0.65305313  0.34665595  0.82142096    -0.77900
C1401       C  0.62846948  0.36622655  0.83290212     0.82900
N1402       N  0.62194745  0.35920172  0.85525640    -0.79600
C1403       C  0.64303900  0.10751565  0.67248302     0.80400
N1404       N  0.66902965  0.12545043  0.68389560    -0.77900
C1405       C  0.67573265  0.11784030  0.70613943     0.82800
N1406       N  0.65618507  0.09260969  0.71693625    -0.77900
C1407       C  0.63131201  0.07360633  0.70546799     0.82900
N1408       N  0.62424489  0.08158993  0.68335654    -0.79600
C1409       C  0.87562081  0.06730957  0.67970470     0.80400
N1410       N  0.85791004  0.09393708  0.69045039    -0.77900
C1411       C  0.86977449  0.10661959  0.71076243     0.82800
N1412       N  0.89914729  0.09205250  0.72060167    -0.77900
C1413       C  0.91648084  0.06488136  0.71000022     0.82900
N1414       N  0.90485933  0.05294745  0.68949143    -0.79600
C1415       C  0.85363289  0.30572331  0.81641059     0.42600
N1416       N  0.81949272  0.26153099  0.80928892     0.01500
C1417       C  0.81936047  0.15421909  0.71302251    -0.06400
H1418       H  0.80915715  0.28828335  0.69453797     0.07000
C1419       C  0.69063595  0.28711658  0.74275097    -0.06700
Co1420     Co  0.84274267  0.22172679  0.76746257     0.74200
N1421       N  0.81588323  0.25928118  0.72609506    -0.25900
Co1422     Co  0.77560974  0.22098131  0.72708025     0.74100
C1423       C  0.70323488  0.30490781  0.72218050     0.42700
N1424       N  0.71467266  0.25911884  0.79615719     0.01100
N1425       N  0.73657374  0.26006117  0.72889355     0.01200
N1426       N  0.86306920  0.15522728  0.73964946    -0.46800
H1427       H  0.88838143  0.29455337  0.78488331     0.07000
N1428       N  0.84072327  0.26014571  0.74195596     0.01500
N1429       N  0.73552316  0.18252721  0.72825660     0.01200
C1430       C  0.69874274  0.14101551  0.71978341     0.42800
N1431       N  0.73962591  0.25929440  0.81197517    -0.25400
C1432       C  0.86887609  0.15876542  0.79674569    -0.06300
N1433       N  0.82494348  0.28770209  0.82406408    -0.46500
N1434       N  0.72738416  0.15912666  0.71208798    -0.46700
C1435       C  0.85994178  0.14403644  0.81890063     0.42600
N1436       N  0.84037576  0.18192415  0.74248417     0.01500
N1437       N  0.74234343  0.18211865  0.81186747    -0.25400
N1438       N  0.84310440  0.26121110  0.79257622    -0.25900
N1439       N  0.71667171  0.18101622  0.79648369     0.01100
H1440       H  0.75449895  0.14983909  0.84131161     0.07000
H1441       H  0.66599656  0.15055738  0.75230705     0.07100
N1442       N  0.81468048  0.18188514  0.72712200    -0.25900
N1443       N  0.71289454  0.25959624  0.74557102    -0.25500
N1444       N  0.82173761  0.18414569  0.81034158     0.01500
C1445       C  0.85630339  0.30083216  0.71833391     0.42900
C1446       C  0.73092515  0.28367667  0.82782043    -0.06800
N1447       N  0.71295261  0.18175934  0.74548333    -0.25500
H1448       H  0.66827440  0.29361387  0.75360086     0.07000
N1449       N  0.86544715  0.28445012  0.73791062    -0.46800
H1450       H  0.74523548  0.28867185  0.84349665     0.07000
C1451       C  0.70606482  0.13699435  0.81880043     0.42700
C1452       C  0.86579045  0.28835220  0.79560147    -0.06300
Co1453     Co  0.78084080  0.22186367  0.81134839     0.73800
N1454       N  0.68904595  0.28249873  0.80017123    -0.46500
C1455       C  0.85127441  0.13663310  0.72144914     0.43000
N1456       N  0.83079354  0.16134857  0.82664293    -0.46500
Co1457     Co  0.71358365  0.22025924  0.77093115     0.73900
C1458       C  0.68902402  0.15601008  0.74180115    -0.06800
C1459       C  0.82373001  0.28381211  0.71017182    -0.06400
N1460       N  0.84419656  0.18370998  0.79304745    -0.25900
N1461       N  0.73166806  0.28668262  0.71439444    -0.46700
H1462       H  0.80269903  0.14754066  0.69860192     0.07000
C1463       C  0.73783421  0.15536959  0.82670987    -0.06800
Cl1464     Cl  0.77817258  0.22121798  0.76922010    -0.49800
C1465       C  0.69767879  0.29936283  0.81967158     0.42800
H1466       H  0.89198916  0.15387776  0.78619661     0.07000
N1467       N  0.69425901  0.15425710  0.80002282    -0.46500
C1468       C  0.91644333  0.33372330  0.67312906     0.80400
N1469       N  0.93480290  0.35932475  0.68466108    -0.77900
C1470       C  0.92612306  0.36735468  0.70657038     0.82800
N1471       N  0.90009396  0.34860625  0.71720154    -0.77900
C1472       C  0.88100169  0.32373829  0.70570116     0.82900
N1473       N  0.88930221  0.31621374  0.68366462    -0.79600
C1474       C  0.68220412  0.37502652  0.67977952     0.80400
N1475       N  0.69893140  0.34755888  0.69047229    -0.77900
C1476       C  0.68661928  0.33539213  0.71081906     0.82800
N1477       N  0.65780402  0.35086670  0.72050617    -0.77900
C1478       C  0.64113302  0.37841210  0.71015326     0.82900
N1479       N  0.65321816  0.39044258  0.68969008    -0.79600
C1480       C  0.94859949  0.39130760  0.72013766     0.42600
N1481       N  0.98937202  0.42910851  0.72856948     0.01500
C1482       C  0.58980532  0.42437307  0.82846618    -0.06400
H1483       H  0.95469154  0.44941960  0.84034533     0.07000
C1484       C  0.96706121  0.06350680  0.79718478    -0.06700
Co1485     Co  0.52727102  0.40718635  0.77113443     0.74200
N1486       N  0.98853817  0.43658126  0.81171139    -0.25900
Co1487     Co  0.52882457  0.47458260  0.81159061     0.74100
C1488       C  0.95185568  0.05433034  0.81922153     0.42700
N1489       N  0.99043109  0.03477513  0.74262353     0.01100
N1490       N  0.99176025  0.01589246  0.81058611     0.01200
N1491       N  0.58934324  0.38260689  0.80064965    -0.46800
H1492       H  0.95856108  0.35901937  0.75270472     0.07000
N1493       N  0.98785444  0.41078924  0.79635276     0.01500
N1494       N  0.56910598  0.01237402  0.80959126     0.01200
C1495       C  0.61472060  0.04474117  0.81621528     0.42800
N1496       N  0.99021178  0.00892085  0.72729187    -0.25400
C1497       C  0.59302947  0.38267754  0.74230001    -0.06300
N1498       N  0.96628293  0.42028693  0.71236488    -0.46500
N1499       N  0.59576253  0.01681562  0.82409772    -0.46700
C1500       C  0.61018481  0.39460287  0.72131505     0.42600
N1501       N  0.56593743  0.40817324  0.79653859     0.01500
N1502       N  0.56698197  0.00875956  0.72629299    -0.25400
N1503       N  0.98883923  0.40656210  0.74580875    -0.25900
N1504       N  0.56821456  0.03367200  0.74217229     0.01100
H1505       H  0.59512123  0.00202528  0.69440123     0.07000
H1506       H  0.60429535  0.07979198  0.78473628     0.07100
N1507       N  0.56573799  0.43303592  0.81245901    -0.25900
N1508       N  0.99180417  0.03857030  0.79340720    -0.25500
N1509       N  0.56669743  0.42930401  0.72883675     0.01500
C1510       C  0.94242030  0.40101160  0.81749768     0.42900
C1511       C  0.96372763  0.01461594  0.71257227    -0.06800
N1512       N  0.56934640  0.03592169  0.79284596    -0.25500
H1513       H  0.96235731  0.08672348  0.78669054     0.07000
N1514       N  0.96062956  0.38878780  0.79924625    -0.46800
H1515       H  0.95741988  0.99821701  0.69794127     0.07000
C1516       C  0.60825611  0.04918519  0.71814668     0.42700
C1517       C  0.96352720  0.38216830  0.74219698    -0.06300
Co1518     Co  0.52832201  0.46904587  0.72729170     0.73800
N1519       N  0.96477186  0.05847325  0.73923609    -0.46500
C1520       C  0.60576684  0.39121282  0.82032855     0.43000
N1521       N  0.59249089  0.42356309  0.71385401    -0.46500
Co1522     Co  0.52991496  0.03640433  0.76775154     0.73900
C1523       C  0.59735002  0.05757395  0.79559995    -0.06800
C1524       C  0.96085309  0.43257081  0.82589601    -0.06400
N1525       N  0.56632319  0.40576975  0.74559769    -0.25900
N1526       N  0.96878438  0.02489335  0.82681863    -0.46700
H1527       H  0.59458068  0.43879412  0.84414904     0.07000
C1528       C  0.59113760  0.01654497  0.71013843    -0.06800
Cl1529     Cl  0.52861117  0.47184575  0.76943159    -0.49800
C1530       C  0.94700247  0.04726626  0.72055699     0.42800
H1531       H  0.59922787  0.36006647  0.75301122     0.07000
N1532       N  0.59241255  0.05839070  0.73789827    -0.46500
C1533       C  0.72574763  0.99610283  0.94676634     0.29900
C1534       C  0.70759334  0.98775996  0.92651875    -0.36400
C1535       C  0.70492161  0.01528723  0.91041420     0.15900
C1536       C  0.71956992  0.04860272  0.91382155     0.21700
C1537       C  0.73780154  0.55691619  0.93413977    -0.34500
C1538       C  0.73946376  0.02972592  0.95051989     0.15800
O1539       O  0.73215904  0.97410973  0.96381421    -0.26600
C1540       C  0.74995842  0.49399548  0.97894720     0.05600
C1541       C  0.75528655  0.52884379  0.97157348    -0.31400
O1542       O  0.71473956  0.06999910  0.89620589    -0.23300
C1543       C  0.69636673  0.05026939  0.88142528    -0.03300
C1544       C  0.68935839  0.01604652  0.88942750    -0.17700
H1545       H  0.69651743  0.96155165  0.92347510     0.20300
H1546       H  0.74931540  0.58297529  0.93702860     0.18700
H1547       H  0.76943522  0.55006142  0.98019592     0.18600
H1548       H  0.67518520  0.99474008  0.88089723     0.14500
C1549       C  0.83576852  0.38537518  0.91352650     0.29900
C1550       C  0.81746750  0.37472982  0.93327447    -0.36400
C1551       C  0.81346841  0.40085059  0.95023384     0.15900
C1552       C  0.82626071  0.43512844  0.94773173     0.21700
C1553       C  0.84509357  0.44555189  0.92822804    -0.34500
C1554       C  0.84939590  0.41938745  0.91142264     0.15800
O1555       O  0.84177091  0.36568776  0.89527818    -0.26600
C1556       C  0.85980823  0.38729626  0.88147700     0.05600
C1557       C  0.86550152  0.42096855  0.89068123    -0.31400
O1558       O  0.81805802  0.45577301  0.96508503    -0.23300
C1559       C  0.80014298  0.43443229  0.97906123    -0.03300
C1560       C  0.79664703  0.39981706  0.97085350    -0.17700
H1561       H  0.80672599  0.34812481  0.93515250     0.20300
H1562       H  0.85525078  0.47235853  0.92617157     0.18700
H1563       H  0.87899836  0.44346959  0.88302160     0.18600
H1564       H  0.78276283  0.37764065  0.97860073     0.14500
C1565       C  0.59851926  0.17941399  0.58712532     0.29900
C1566       C  0.62979279  0.17301580  0.59962189    -0.36400
C1567       C  0.62606868  0.15150646  0.61907911     0.15900
C1568       C  0.59388434  0.13693030  0.62553941     0.21700
C1569       C  0.56259813  0.14380260  0.61328741    -0.34500
C1570       C  0.56621779  0.16570876  0.59409818     0.15800
O1571       O  0.59591408  0.19779966  0.56801196    -0.26600
C1572       C  0.56136780  0.19644558  0.56301256     0.05600
C1573       C  0.54162768  0.17690230  0.57867719    -0.31400
O1574       O  0.59623718  0.11806851  0.64440709    -0.23300
C1575       C  0.63028606  0.12079962  0.65035285    -0.03300
C1576       C  0.65016555  0.14141384  0.63525723    -0.17700
H1577       H  0.65519463  0.18406858  0.59455795     0.20300
H1578       H  0.53714408  0.13297371  0.61844585     0.18700
H1579       H  0.51349500  0.17073743  0.57822258     0.18600
H1580       H  0.67795565  0.14877311  0.63644738     0.14500
C1581       C  0.96672852  0.30563902  0.62607744     0.29900
C1582       C  0.99811596  0.29949513  0.61369253    -0.36400
C1583       C  0.99477485  0.27812291  0.59416870     0.15900
C1584       C  0.96264082  0.26424869  0.58702589     0.21700
C1585       C  0.93128244  0.26998837  0.59960347    -0.34500
C1586       C  0.93473175  0.29093633  0.61936541     0.15800
O1587       O  0.96405677  0.32395103  0.64521586    -0.26600
C1588       C  0.92996158  0.32075469  0.65103197     0.05600
C1589       C  0.91044024  0.30034766  0.63561284    -0.31400
O1590       O  0.96552222  0.24606425  0.56780602    -0.23300
C1591       C  0.50010885  0.24768964  0.56286308    -0.03300
C1592       C  0.51956516  0.26729347  0.57868581    -0.17700
H1593       H  0.52346651  0.31038209  0.61902371     0.20300
H1594       H  0.90601620  0.25877445  0.59440825     0.18700
H1595       H  0.88268128  0.29278946  0.63658535     0.18600
H1596       H  0.54769362  0.27349297  0.57840076     0.14500
C1597       C  0.57334894  0.28965186  0.95331513     0.29900
C1598       C  0.57900369  0.32070333  0.94045487    -0.36400
C1599       C  0.60006304  0.31677565  0.92083421     0.15900
C1600       C  0.61513893  0.28466176  0.91459305     0.21700
C1601       C  0.60935801  0.25360798  0.92738458    -0.34500
C1602       C  0.58764631  0.25737337  0.94667869     0.15800
O1603       O  0.55440013  0.28711703  0.97219322    -0.26600
C1604       C  0.55592552  0.25261646  0.97736804     0.05600
C1605       C  0.57627649  0.23284077  0.96212629    -0.31400
O1606       O  0.63271462  0.28669071  0.89518637    -0.23300
C1607       C  0.62859284  0.32043980  0.88873008    -0.03300
C1608       C  0.60847390  0.34043640  0.90402702    -0.17700
H1609       H  0.56724382  0.34598905  0.94517367     0.20300
H1610       H  0.62033866  0.22812091  0.92234067     0.18700
H1611       H  0.58248788  0.20468591  0.96274318     0.18600
H1612       H  0.60011815  0.36793922  0.90250738     0.14500
C1613       C  0.98597131  0.15652606  0.95246409     0.29900
C1614       C  0.98033490  0.12556025  0.93949176    -0.36400
C1615       C  0.95975976  0.12964516  0.91970299     0.15900
C1616       C  0.94519079  0.16187826  0.91330204     0.21700
C1617       C  0.95116231  0.19296730  0.92614060    -0.34500
C1618       C  0.97228866  0.18898670  0.94571892     0.15800
O1619       O  0.50413503  0.15868035  0.97166929    -0.26600
C1620       C  0.00272589  0.19310646  0.97706718     0.05600
C1621       C  0.98327592  0.21326673  0.96153097    -0.31400
O1622       O  0.92733619  0.15968606  0.89397162    -0.23300
C1623       C  0.93078968  0.12567977  0.88777378    -0.03300
C1624       C  0.95082211  0.10577323  0.90311362    -0.17700
H1625       H  0.99149097  0.10010365  0.94438396     0.20300
H1626       H  0.94044879  0.21853655  0.92106974     0.18700
H1627       H  0.97739600  0.24149835  0.96216922     0.18600
H1628       H  0.95844588  0.07801661  0.90188676     0.14500
C1629       C  0.86528311  0.03112526  0.62521934     0.29900
C1630       C  0.87627861  0.51559442  0.60465877    -0.36400
C1631       C  0.84919550  0.50844429  0.58889170     0.15900
C1632       C  0.81383608  0.01563366  0.59317009     0.21700
C1633       C  0.80298174  0.03200887  0.61349448    -0.34500
C1634       C  0.83005235  0.03963700  0.62913336     0.15800
O1635       O  0.88593695  0.03957516  0.64252836    -0.26600
C1636       C  0.86370005  0.05418694  0.65750469     0.05600
C1637       C  0.82862661  0.05512388  0.65008571    -0.31400
O1638       O  0.79287302  0.00549669  0.57643890    -0.23300
C1639       C  0.81496373  0.49185377  0.56120939    -0.03300
C1640       C  0.85043220  0.49303963  0.56786574    -0.17700
H1641       H  0.90383405  0.50902196  0.60131426     0.20300
H1642       H  0.77535184  0.03818600  0.61691277     0.18700
H1643       H  0.80546202  0.06509264  0.65902976     0.18600
H1644       H  0.87349194  0.48310999  0.55880604     0.14500
C1645       C  0.72288015  0.43219587  0.58892039     0.29900
C1646       C  0.69475743  0.43434049  0.60465199    -0.36400
C1647       C  0.69868806  0.41428187  0.62469929     0.15900
C1648       C  0.72805938  0.39319149  0.62886532     0.21700
C1649       C  0.75625581  0.39117254  0.61319884    -0.34500
C1650       C  0.75252675  0.41157351  0.59330166     0.15800
O1651       O  0.72513879  0.44930610  0.56929862    -0.26600
C1652       C  0.75678567  0.43973216  0.56115648     0.05600
C1653       C  0.77502162  0.41637784  0.57536111    -0.31400
O1654       O  0.72615612  0.37662019  0.64866876    -0.23300
C1655       C  0.69529096  0.38744333  0.65743717    -0.03300
C1656       C  0.67709047  0.41096540  0.64327006    -0.17700
H1657       H  0.67159905  0.45079451  0.60158616     0.20300
H1658       H  0.77964005  0.37510027  0.61640740     0.18700
H1659       H  0.80121277  0.40500369  0.57287730     0.18600
H1660       H  0.65159389  0.42359675  0.64618984     0.14500
C1661       C  0.69243699  0.03014454  0.12587935     0.29900
C1662       C  0.69492524  0.99943197  0.11230571    -0.36400
C1663       C  0.71864089  0.00125804  0.09388420     0.15900
C1664       C  0.73822139  0.03141110  0.08889746     0.21700
C1665       C  0.73608375  0.06197226  0.10267375    -0.34500
C1666       C  0.71259042  0.06004140  0.12124761     0.15800
O1667       O  0.67295283  0.03374648  0.14444319    -0.26600
C1668       C  0.68077663  0.06632487  0.15191523     0.05600
C1669       C  0.70531001  0.08394847  0.13813728    -0.31400
O1670       O  0.75755469  0.02768337  0.07024446    -0.23300
C1671       C  0.75070443  0.99450373  0.06350453    -0.03300
C1672       C  0.72681685  0.97675025  0.07758319    -0.17700
H1673       H  0.67960555  0.97568200  0.11594571     0.20300
H1674       H  0.75171868  0.08567857  0.09915266     0.18700
H1675       H  0.71712747  0.10992427  0.14072685     0.18600
H1676       H  0.71619984  0.95017219  0.07558597     0.14500
C1677       C  0.58305388  0.14713755  0.41041478     0.29900
C1678       C  0.55723530  0.14421741  0.42758912    -0.36400
C1679       C  0.56184733  0.16642044  0.44661324     0.15900
C1680       C  0.58982803  0.19007485  0.44863378     0.21700
C1681       C  0.61534977  0.19342802  0.43125421    -0.34500
C1682       C  0.61083092  0.17105515  0.41224949     0.15800
O1683       O  0.58460571  0.12800254  0.39155132    -0.26600
C1684       C  0.61369063  0.13987811  0.38107698     0.05600
C1685       C  0.63100335  0.16678599  0.39312863    -0.31400
O1686       O  0.58899051  0.20804347  0.46802508    -0.23300
C1687       C  0.56013656  0.19558931  0.47850513    -0.03300
C1688       C  0.54211183  0.16987524  0.46592957    -0.17700
H1689       H  0.53532615  0.12558637  0.42634364     0.20300
H1690       H  0.63739810  0.21187943  0.43256689     0.18700
H1691       H  0.65527816  0.18065896  0.38864874     0.18600
H1692       H  0.51767300  0.15621683  0.47030228     0.14500
C1693       C  0.85396691  0.00707755  0.45191438     0.29900
C1694       C  0.88421069  0.01131494  0.43801958    -0.36400
C1695       C  0.88049545  0.03465336  0.41941507     0.15900
C1696       C  0.84937710  0.05295519  0.41504736     0.21700
C1697       C  0.81917974  0.04851957  0.42880814    -0.34500
C1698       C  0.82265938  0.02475128  0.44708758     0.15800
O1699       O  0.85118898  0.48676604  0.47035047    -0.26600
C1700       C  0.81749208  0.49097670  0.47693382     0.05600
C1701       C  0.79863512  0.01431982  0.46310689    -0.31400
O1702       O  0.85128876  0.07259951  0.39645763    -0.23300
C1703       C  0.88399405  0.06676844  0.38861887    -0.03300
C1704       C  0.90339196  0.04326945  0.40219566    -0.17700
H1705       H  0.90861996  0.49695932  0.44138495     0.20300
H1706       H  0.79444812  0.06222033  0.42526810     0.18700
H1707       H  0.77134110  0.02302966  0.46506136     0.18600
H1708       H  0.92997736  0.03307930  0.39933231     0.14500
C1709       C  0.58533651  0.29949254  0.12830064     0.29900
C1710       C  0.56108494  0.30606627  0.11062087    -0.36400
C1711       C  0.56262077  0.28259721  0.09203135     0.15900
C1712       C  0.58623614  0.25443428  0.09099532     0.21700
C1713       C  0.61067998  0.24803845  0.10858222    -0.34500
C1714       C  0.60922515  0.27159643  0.12712078     0.15800
O1715       O  0.58829503  0.31786583  0.14737369    -0.26600
C1716       C  0.61446134  0.30157384  0.15852872     0.05600
C1717       C  0.62852557  0.27262486  0.14673485    -0.31400
O1718       O  0.58216419  0.23506224  0.07243326    -0.23300
C1719       C  0.55590178  0.25128310  0.06136411    -0.03300
C1720       C  0.54270358  0.28102182  0.07266231    -0.17700
H1721       H  0.54216504  0.32778499  0.11139010     0.20300
H1722       H  0.62926425  0.22601655  0.10796239     0.18700
H1723       H  0.64977981  0.25491364  0.15189903     0.18600
H1724       H  0.52095683  0.29820237  0.06762734     0.14500
C1725       C  0.98269119  0.19133396  0.09412478     0.29900
C1726       C  0.96608712  0.20079962  0.11465305    -0.36400
C1727       C  0.96215284  0.17342565  0.13065915     0.15900
C1728       C  0.97422667  0.13916727  0.12690033     0.21700
C1729       C  0.49044949  0.12956767  0.10619090    -0.34500
C1730       C  0.99389645  0.15688190  0.08999252     0.15800
O1731       O  0.98976158  0.21300048  0.07709632    -0.26600
C1732       C  0.00532919  0.19219460  0.06167489     0.05600
C1733       C  0.50844241  0.15689518  0.06865436    -0.31400
O1734       O  0.96833611  0.11801678  0.14445881    -0.23300
C1735       C  0.95187926  0.13894176  0.15947519    -0.03300
C1736       C  0.94718551  0.17364577  0.15177811    -0.17700
H1737       H  0.95699538  0.22769483  0.11794174     0.20300
H1738       H  0.49976652  0.10273471  0.10296175     0.18700
H1739       H  0.52060974  0.13487050  0.05961892     0.18600
H1740       H  0.93471730  0.19578755  0.16053403     0.14500
C1741       C  0.69161801  0.39617892  0.41910416     0.29900
C1742       C  0.68560301  0.41600450  0.43906078    -0.36400
C1743       C  0.71584959  0.42403762  0.45215833     0.15900
C1744       C  0.74977177  0.41376572  0.44592932     0.21700
C1745       C  0.75571921  0.39348896  0.42619537    -0.34500
C1746       C  0.72542589  0.38493899  0.41332875     0.15800
O1747       O  0.66749030  0.38683072  0.40380930    -0.26600
C1748       C  0.68607478  0.36870360  0.38832248     0.05600
C1749       C  0.72215654  0.36653428  0.39348555    -0.31400
O1750       O  0.77414787  0.42410283  0.46072142    -0.23300
C1751       C  0.75553625  0.44091970  0.47676165    -0.03300
C1752       C  0.71915805  0.44160339  0.47235653    -0.17700
H1753       H  0.65922481  0.42464765  0.44400572     0.20300
H1754       H  0.78211424  0.38490039  0.42123700     0.18700
H1755       H  0.74321205  0.35461454  0.38343789     0.18600
H1756       H  0.69821038  0.45290931  0.48276927     0.14500
C1757       C  0.86149119  0.40274106  0.12615005     0.29900
C1758       C  0.85447289  0.43357699  0.11341851    -0.36400
C1759       C  0.83240995  0.42920807  0.09435193     0.15900
C1760       C  0.81867226  0.39661429  0.08789884     0.21700
C1761       C  0.82528396  0.36576204  0.10085922    -0.34500
C1762       C  0.84694285  0.37025150  0.12021327     0.15800
O1763       O  0.88053756  0.40113620  0.14499328    -0.26600
C1764       C  0.87799530  0.36724800  0.15145920     0.05600
C1765       C  0.85727337  0.34675502  0.13672467    -0.31400
O1766       O  0.79984740  0.39859366  0.06889129    -0.23300
C1767       C  0.80095061  0.43306849  0.06343905    -0.03300
C1768       C  0.82083105  0.45330171  0.07870563    -0.17700
H1769       H  0.86525744  0.45928424  0.11816361     0.20300
H1770       H  0.81421145  0.34012190  0.09624075     0.18700
H1771       H  0.85009285  0.31892646  0.13831787     0.18600
H1772       H  0.82682891  0.48149175  0.07791151     0.14500
C1773       C  0.00096961  0.26988577  0.44642278     0.29900
C1774       C  0.01010199  0.28852797  0.42657990    -0.36400
C1775       C  0.98329214  0.29144313  0.41013581     0.15900
C1776       C  0.95001249  0.27641767  0.41283098     0.21700
C1777       C  0.94078833  0.25796154  0.43277229    -0.34500
C1778       C  0.96740821  0.25564321  0.44943395     0.15800
O1779       O  0.52205249  0.26378981  0.46386760    -0.26600
C1780       C  0.50158790  0.24596918  0.47841722     0.05600
C1781       C  0.96727523  0.24011401  0.47042857    -0.31400
O1782       O  0.92929970  0.28184423  0.39506666    -0.23300
C1783       C  0.94945678  0.30093963  0.38098255    -0.03300
C1784       C  0.98326018  0.30787229  0.38947823    -0.17700
H1785       H  0.03625446  0.30002480  0.42416812     0.20300
H1786       H  0.91468064  0.24635140  0.43514999     0.18700
H1787       H  0.94584725  0.22573109  0.47863635     0.18600
H1788       H  0.00473145  0.32248487  0.38147308     0.14500
C1789       C  0.93615467  0.81347371  0.35886331     0.80400
N1790       N  0.90763212  0.79723526  0.34928204    -0.77900
C1791       C  0.89524044  0.80821771  0.32876121     0.82800
N1792       N  0.91106189  0.83592309  0.31793683    -0.77900
C1793       C  0.93959004  0.85231089  0.32746745     0.82900
N1794       N  0.95224620  0.84094472  0.34788179    -0.79600
C1795       C  0.89198253  0.85499275  0.17347418     0.80400
N1796       N  0.87508493  0.82844849  0.18501499    -0.77900
C1797       C  0.88344639  0.82178777  0.20715417     0.82800
N1798       N  0.90847715  0.84191298  0.21773586    -0.77900
C1799       C  0.92652915  0.86736592  0.20612791     0.82900
N1800       N  0.91773443  0.87438653  0.18411820    -0.79600
C1801       C  0.67138459  0.85580942  0.36644476     0.80400
N1802       N  0.68895895  0.82993413  0.35477457    -0.77900
C1803       C  0.67966026  0.82174857  0.33308338     0.82800
N1804       N  0.65338475  0.84043040  0.32269099    -0.77900
C1805       C  0.63469295  0.86548545  0.33439814     0.82900
N1806       N  0.64388119  0.87335852  0.35630520    -0.79600
C1807       C  0.93943399  0.62616556  0.18179748     0.80400
N1808       N  0.95449097  0.59702735  0.19144590    -0.77900
C1809       C  0.94207885  0.58424897  0.21159935     0.82800
N1810       N  0.91388559  0.60029509  0.22191264    -0.77900
C1811       C  0.89867877  0.62946780  0.21224684     0.82900
N1812       N  0.91170242  0.64243643  0.19232176    -0.79600
C1813       C  0.95578033  0.88298896  0.31618826     0.42600
N1814       N  0.48888898  0.92820725  0.31010085     0.01500
C1815       C  0.49118791  0.53518374  0.21384689    -0.06400
H1816       H  0.49895622  0.90213591  0.19508470     0.07000
C1817       C  0.61828831  0.90099039  0.24416352    -0.06700
Co1818     Co  0.96640120  0.96852890  0.26833471     0.74200
N1819       N  0.49286828  0.93062129  0.22694923    -0.25900
Co1820     Co  0.53403365  0.96807212  0.22841028     0.74100
C1821       C  0.60628393  0.88401124  0.22319550     0.42700
N1822       N  0.59322906  0.92822508  0.29798552     0.01100
N1823       N  0.57249783  0.92834913  0.23034970     0.01200
N1824       N  0.94707778  0.53503519  0.24024319    -0.46800
H1825       H  0.92121109  0.89460392  0.28466876     0.07000
N1826       N  0.96777362  0.93024836  0.24269011     0.01500
N1827       N  0.57497810  0.50574324  0.23019666     0.01200
C1828       C  0.61326042  0.54599140  0.22193825     0.42800
N1829       N  0.56828580  0.92884158  0.31380432    -0.25400
C1830       C  0.94264332  0.53325745  0.29728359    -0.06300
N1831       N  0.48392367  0.90126995  0.32429805    -0.46500
N1832       N  0.58406501  0.52889658  0.21413120    -0.46700
C1833       C  0.95257220  0.54856480  0.31915164     0.42600
N1834       N  0.96959354  0.50827671  0.24341977     0.01500
N1835       N  0.56724814  0.50614596  0.31349595    -0.25400
N1836       N  0.96547094  0.92881199  0.29329462    -0.25900
N1837       N  0.59310377  0.50638569  0.29823743     0.01100
H1838       H  0.55521203  0.53968657  0.34245099     0.07000
H1839       H  0.64536785  0.53533287  0.25453285     0.07100
N1840       N  0.49555221  0.50785285  0.22822135    -0.25900
N1841       N  0.59582612  0.92824120  0.24722671    -0.25500
N1842       N  0.48825785  0.50587696  0.31126053     0.01500
C1843       C  0.95108528  0.89072880  0.21856908     0.42900
C1844       C  0.57653847  0.90466816  0.32990484    -0.06800
N1845       N  0.59742302  0.50574252  0.24749665    -0.25500
H1846       H  0.64062883  0.89441818  0.25499209     0.07000
N1847       N  0.94229470  0.90688389  0.23830143    -0.46800
H1848       H  0.56211262  0.90031792  0.34562120     0.07000
C1849       C  0.60418724  0.55090859  0.31998794     0.42700
C1850       C  0.94333074  0.90106453  0.29571870    -0.06300
Co1851     Co  0.52797191  0.96716656  0.31264515     0.73800
N1852       N  0.61837041  0.90445358  0.30221375    -0.46500
C1853       C  0.95917402  0.55307611  0.22190183     0.43000
N1854       N  0.48060388  0.52988587  0.32713965    -0.46500
Co1855     Co  0.59548875  0.96716931  0.27273627     0.73900
C1856       C  0.62224271  0.53070361  0.24396042    -0.06800
C1857       C  0.48438667  0.90671864  0.21072239    -0.06400
N1858       N  0.96586785  0.50678426  0.29396861    -0.25900
N1859       N  0.57790801  0.90233461  0.21544314    -0.46700
H1860       H  0.50807530  0.54140505  0.19945175     0.07000
C1861       C  0.57203024  0.53329430  0.32804533    -0.06800
Cl1862     Cl  0.53098331  0.96766112  0.27050810    -0.49800
C1863       C  0.60954706  0.88817897  0.32188992     0.42800
H1864       H  0.92002678  0.53924499  0.28654820     0.07000
N1865       N  0.61590418  0.53285562  0.30151129    -0.46500
C1866       C  0.62699304  0.81356904  0.18096368     0.80400
N1867       N  0.61085130  0.84168808  0.19134348    -0.77900
C1868       C  0.62292049  0.85360228  0.21179462     0.82800
N1869       N  0.65115941  0.83752461  0.22173272    -0.77900
C1870       C  0.66730995  0.80946072  0.21155198     0.82900
N1871       N  0.65522870  0.79742638  0.19114464    -0.79600
C1872       C  0.89558635  0.57997422  0.36623904     0.80400
N1873       N  0.92229645  0.56307624  0.35488408    -0.77900
C1874       C  0.92922267  0.57126187  0.33278713     0.82800
N1875       N  0.90915761  0.59600818  0.32201372    -0.77900
C1876       C  0.88333022  0.61394016  0.33331451     0.81700
N1877       N  0.87603803  0.60541792  0.35536052    -0.79600
C1878       C  0.62655986  0.62484880  0.35934966     0.80400
N1879       N  0.60989803  0.59622132  0.34995136    -0.77900
C1880       C  0.62185702  0.58206286  0.33001477     0.82800
N1881       N  0.65042782  0.59674391  0.31942424    -0.77900
C1882       C  0.66698447  0.62549351  0.32863753     0.82900
N1883       N  0.65510249  0.63938479  0.34861745    -0.79600
C1884       C  0.66855116  0.57939697  0.17433977     0.80400
N1885       N  0.64360563  0.56067091  0.18614567    -0.77900
C1886       C  0.63686715  0.56859985  0.20833903     0.82800
N1887       N  0.65595318  0.59445420  0.21888251    -0.77900
C1888       C  0.67997700  0.61405039  0.20705768     0.82900
N1889       N  0.68645120  0.60634465  0.18481921    -0.79600
C1890       C  0.86115706  0.79806554  0.22092429     0.42600
N1891       N  0.81982538  0.76091819  0.22917092     0.01500
C1892       C  0.71774170  0.76370271  0.32818261    -0.06400
H1893       H  0.85285905  0.74208854  0.34143303     0.07000
C1894       C  0.84495821  0.62761675  0.29791713    -0.06700
Co1895     Co  0.78142611  0.78237462  0.27163648     0.74200
N1896       N  0.81962554  0.75399738  0.31242661    -0.25900
Co1897     Co  0.78056481  0.71499229  0.31210119     0.74100
C1898       C  0.85943399  0.63687493  0.32010774     0.42700
N1899       N  0.82175479  0.65606178  0.24343817     0.01100
N1900       N  0.81881725  0.67448442  0.31139474     0.01200
N1901       N  0.71843858  0.80579065  0.30065929    -0.46800
H1902       H  0.85096034  0.83077544  0.25340831     0.07000
N1903       N  0.82022435  0.77961729  0.29699189     0.01500
N1904       N  0.74155047  0.67586864  0.31001702     0.01200
C1905       C  0.69759047  0.64152802  0.31710810     0.42800
N1906       N  0.82128328  0.68179366  0.22807872    -0.25400
C1907       C  0.71547614  0.80547194  0.24329518    -0.06300
N1908       N  0.84332242  0.76925351  0.21313493    -0.46500
N1909       N  0.71530625  0.67046292  0.32467194    -0.46700
C1910       C  0.69807015  0.79308140  0.22259804     0.42600
N1911       N  0.74240838  0.78066052  0.29673608     0.01500
N1912       N  0.74412080  0.67964324  0.22699684    -0.25400
N1913       N  0.82019018  0.78353526  0.24639281    -0.25900
N1914       N  0.74369334  0.65471343  0.24283532     0.01100
H1915       H  0.71472967  0.68615867  0.19558003     0.07000
H1916       H  0.70923725  0.60641625  0.28574812     0.07100
N1917       N  0.74254432  0.75563146  0.31251680    -0.25900
N1918       N  0.81969857  0.65195114  0.29411863    -0.25500
N1919       N  0.74240757  0.75927091  0.22954079     0.01500
C1920       C  0.86458365  0.79051819  0.31858008     0.42900
C1921       C  0.84912708  0.67787287  0.21409847    -0.06800
N1922       N  0.74223319  0.65206373  0.29339579    -0.25500
H1923       H  0.85036701  0.60459629  0.28735300     0.07000
N1924       N  0.84687291  0.80219411  0.30005804    -0.46800
H1925       H  0.85558223  0.69487644  0.19980011     0.07000
C1926       C  0.70305002  0.63878151  0.21940916     0.42700
C1927       C  0.84581186  0.80766914  0.24286850    -0.06300
Co1928     Co  0.78181060  0.72040638  0.22791300     0.73800
N1929       N  0.84909398  0.63409345  0.24071409    -0.46500
C1930       C  0.70136464  0.79659907  0.31997783     0.43000
N1931       N  0.71613472  0.76445644  0.21484472    -0.46500
Co1932     Co  0.78189995  0.65300131  0.26837192     0.73900
C1933       C  0.71524916  0.62915785  0.29642275    -0.06800
C1934       C  0.84670062  0.75872097  0.32690973    -0.06400
N1935       N  0.74264964  0.78293674  0.24624188    -0.25900
N1936       N  0.84169503  0.66587230  0.32775952    -0.46700
H1937       H  0.71282674  0.74918448  0.34379101     0.07000
C1938       C  0.71956355  0.67156477  0.21116614    -0.06800
Cl1939     Cl  0.78138558  0.71768809  0.27001679    -0.49800
C1940       C  0.86749278  0.64645878  0.22258006     0.42800
H1941       H  0.70905928  0.82793164  0.25411997     0.07000
N1942       N  0.71963555  0.62974385  0.23890036    -0.46500
C1943       C  0.77201814  0.95391566  0.49799447     0.02400
C1944       C  0.80300000  0.97539138  0.49803309     0.02400
C1945       C  0.81795711  0.98586161  0.51891641    -0.18100
C1946       C  0.80216683  0.97589611  0.53965633     0.02400
C1947       C  0.77195958  0.95360377  0.53960048     0.02400
C1948       C  0.75695376  0.94317545  0.51882602    -0.18100
H1949       H  0.73392436  0.92574682  0.51888656     0.04400
H1950       H  0.84063337  0.50368711  0.51904219     0.04400
C1951       C  0.54104241  0.73695004  0.04005793     0.02400
C1952       C  0.51916316  0.70644038  0.04004726     0.02400
C1953       C  0.00825401  0.69161310  0.01921670    -0.18100
C1954       C  0.51816353  0.70738352  0.99843357     0.02400
C1955       C  0.54054023  0.73773892  0.99856673     0.02400
C1956       C  0.55136594  0.75244455  0.01940846    -0.18100
H1957       H  0.56912410  0.77524197  0.01956479     0.04400
H1958       H  0.99062027  0.66873058  0.01920396     0.04400
C1959       C  0.54628373  0.71072917  0.49999572     0.02400
C1960       C  0.51559444  0.73224656  0.49998498     0.02400
C1961       C  0.50010552  0.74272421  0.52068230    -0.18100
C1962       C  0.51546861  0.73295019  0.54156252     0.02400
C1963       C  0.54644448  0.71138880  0.54160766     0.02400
C1964       C  0.56171141  0.70077475  0.52078090    -0.18100
H1965       H  0.58476102  0.68339212  0.52075406     0.04400
H1966       H  0.97691267  0.75992145  0.52051078     0.04400
C1967       C  0.76470257  0.97918886  0.04213859     0.02400
C1968       C  0.78547095  0.94771813  0.04207360     0.02400
C1969       C  0.79468268  0.93198548  0.02116183    -0.18100
C1970       C  0.78462197  0.94777321  0.00044350     0.02400
C1971       C  0.76375957  0.97905499  0.00050892     0.02400
C1972       C  0.75433764  0.99470627  0.02138624    -0.18100
H1973       H  0.73778053  0.51835862  0.02153873     0.04400
H1974       H  0.81167969  0.90862728  0.02098117     0.04400
C1975       C  0.87270472  0.87582174  0.85898375     0.80400
N1976       N  0.89963787  0.89370879  0.84859873    -0.77900
C1977       C  0.91212578  0.88266174  0.82805100     0.82800
N1978       N  0.89722716  0.85392590  0.81772560    -0.77900
C1979       C  0.86989876  0.83630922  0.82784473     0.82900
N1980       N  0.85791576  0.84707497  0.84858184    -0.79600
C1981       C  0.91838158  0.61262478  0.86550732     0.80400
N1982       N  0.93646902  0.58608794  0.85462029    -0.77900
C1983       C  0.92873749  0.57795920  0.83257601     0.82800
N1984       N  0.90321192  0.59655406  0.82149329    -0.77900
C1985       C  0.88413455  0.62199636  0.83238888     0.82900
N1986       N  0.89224619  0.63060704  0.85428545    -0.79600
C1987       C  0.68478086  0.56360328  0.85903106     0.80400
N1988       N  0.65726271  0.54759441  0.84797249    -0.77900
C1989       C  0.64552019  0.56068057  0.82773675     0.82800
N1990       N  0.66153861  0.58959890  0.81842621    -0.77900
C1991       C  0.68920679  0.60555003  0.82916642     0.82900
N1992       N  0.70065292  0.59267902  0.84958530    -0.79600
C1993       C  0.64019069  0.83292295  0.86626479     0.80400
N1994       N  0.66544036  0.81414839  0.85480113    -0.77900
C1995       C  0.67235004  0.82131480  0.83256052     0.82800
N1996       N  0.65297117  0.84646548  0.82151908    -0.77900
C1997       C  0.62846943  0.86614847  0.83299042     0.82900
N1998       N  0.62201562  0.85926694  0.85537419    -0.79600
C1999       C  0.64298419  0.60772851  0.67239086     0.80400
N2000       N  0.66900376  0.62561190  0.68381202    -0.77900
C2001       C  0.67570658  0.61795027  0.70604883     0.82800
N2002       N  0.65613751  0.59273165  0.71682965    -0.77900
C2003       C  0.63123282  0.57378643  0.70536057     0.82900
N2004       N  0.62415969  0.58180763  0.68325321    -0.79600
C2005       C  0.87585264  0.56765123  0.67965039     0.80400
N2006       N  0.85808037  0.59418772  0.69043669    -0.77900
C2007       C  0.86987042  0.60677352  0.71078490     0.82800
N2008       N  0.89923437  0.59220150  0.72062654    -0.77900
C2009       C  0.91662958  0.56511043  0.70998551     0.82900
N2010       N  0.90507994  0.55326569  0.68943712    -0.79600
C2011       C  0.85363918  0.80564419  0.81644498     0.42600
N2012       N  0.81941805  0.76154528  0.80929025     0.01500
C2013       C  0.81936581  0.65423211  0.71306126    -0.06400
H2014       H  0.80913655  0.78813422  0.69446831     0.07000
C2015       C  0.69055841  0.78703729  0.74274737    -0.06700
Co2016     Co  0.84269036  0.72178533  0.76746332     0.74200
N2017       N  0.81581157  0.75927227  0.72608317    -0.25900
Co2018     Co  0.77557254  0.72096189  0.72709188     0.74100
C2019       C  0.70316193  0.80480867  0.72216479     0.42700
N2020       N  0.71457905  0.75899204  0.79621166     0.01100
N2021       N  0.73651735  0.75999807  0.72891154     0.01200
N2022       N  0.86307809  0.65531042  0.73968840    -0.46800
H2023       H  0.88835197  0.79450881  0.78489997     0.07000
N2024       N  0.84063901  0.76017933  0.74194927     0.01500
N2025       N  0.73552848  0.68250294  0.72825413     0.01200
C2026       C  0.69872891  0.64105681  0.71971999     0.42800
N2027       N  0.73954763  0.75917490  0.81201995    -0.25400
C2028       C  0.86896199  0.65892810  0.79675573    -0.06300
N2029       N  0.82493328  0.78765132  0.82410029    -0.46500
N2030       N  0.72738135  0.65916665  0.71205128    -0.46700
C2031       C  0.86007268  0.64422210  0.81892107     0.42600
N2032       N  0.84035637  0.68198146  0.74250865     0.01500
N2033       N  0.74242273  0.68201278  0.81185207    -0.25400
N2034       N  0.84301225  0.76124729  0.79256677    -0.25900
N2035       N  0.71674011  0.68088032  0.79647638     0.01100
H2036       H  0.75475880  0.64964419  0.84122525     0.07000
H2037       H  0.66596748  0.65052053  0.75224704     0.07100
N2038       N  0.81466226  0.68190409  0.72714716    -0.25900
N2039       N  0.71283241  0.75953140  0.74558823    -0.25500
N2040       N  0.82176715  0.68420245  0.81034512     0.01500
C2041       C  0.85626435  0.80075108  0.71826434     0.42900
C2042       C  0.73081537  0.78347992  0.82790604    -0.06800
N2043       N  0.71295369  0.68170135  0.74547691    -0.25500
H2044       H  0.66818184  0.79353092  0.75358552     0.07000
N2045       N  0.86538068  0.78444887  0.73787265    -0.46800
H2046       H  0.74513536  0.78845110  0.84358154     0.07000
C2047       C  0.70633878  0.63672430  0.81872317     0.42700
C2048       C  0.86573777  0.78833847  0.79560803    -0.06300
Co2049     Co  0.78082322  0.72183152  0.81135542     0.73800
N2050       N  0.68890499  0.78230440  0.80027244    -0.46500
C2051       C  0.85129517  0.63669327  0.72149908     0.43000
N2052       N  0.83088550  0.66146045  0.82666111    -0.46500
Co2053     Co  0.71355203  0.72016731  0.77094780     0.73900
C2054       C  0.68901331  0.65597904  0.74175847    -0.06800
C2055       C  0.82368396  0.78373086  0.71011973    -0.06400
N2056       N  0.84421563  0.68379606  0.79304751    -0.25900
N2057       N  0.73160501  0.78659276  0.71439727    -0.46700
H2058       H  0.80271562  0.64752654  0.69864041     0.07000
C2059       C  0.73804122  0.65518445  0.82664902    -0.06800
Cl2060     Cl  0.77813442  0.72120560  0.76922942    -0.49800
C2061       C  0.69752585  0.79911192  0.81979846     0.42800
H2062       H  0.89208936  0.65409345  0.78620990     0.07000
N2063       N  0.69443656  0.65402028  0.79998152    -0.46500
C2064       C  0.91635066  0.83377518  0.67306230     0.80400
N2065       N  0.93474469  0.85930752  0.68463291    -0.77900
C2066       C  0.92611139  0.86723652  0.70656338     0.82800
N2067       N  0.90008588  0.84846611  0.71717416    -0.77900
C2068       C  0.88095450  0.82366977  0.70564038     0.82900
N2069       N  0.88921192  0.81623295  0.68358239    -0.79600
C2070       C  0.68214957  0.87480636  0.67967718     0.80400
N2071       N  0.69888301  0.84738097  0.69041156    -0.77900
C2072       C  0.68654417  0.83524704  0.71076055     0.82800
N2073       N  0.65771003  0.85071974  0.72041485    -0.77900
C2074       C  0.64103144  0.87822749  0.71003143     0.82900
N2075       N  0.65312915  0.89022286  0.68955729    -0.79600
C2076       C  0.94860246  0.89114093  0.72015024     0.42600
N2077       N  0.98936216  0.92894348  0.72858855     0.01500
C2078       C  0.58982597  0.92429131  0.82848634    -0.06400
H2079       H  0.95480460  0.94918397  0.84038269     0.07000
C2080       C  0.96721864  0.56374448  0.79717448    -0.06700
Co2081     Co  0.52733103  0.90702503  0.77113528     0.74200
N2082       N  0.98861682  0.93638512  0.81172770    -0.25900
Co2083     Co  0.52883444  0.97444441  0.81159268     0.74100
C2084       C  0.95198757  0.55456942  0.81920161     0.42700
N2085       N  0.99053516  0.53495568  0.74261894     0.01100
N2086       N  0.99182441  0.51607758  0.81057037     0.01200
N2087       N  0.58941188  0.88249461  0.80068763    -0.46800
H2088       H  0.95861439  0.85880020  0.75269440     0.07000
N2089       N  0.98794466  0.91058990  0.79637059     0.01500
N2090       N  0.56915133  0.51244801  0.80960558     0.01200
C2091       C  0.61485199  0.54468272  0.81623656     0.42800
N2092       N  0.99029156  0.50909682  0.72728886    -0.25400
C2093       C  0.59301694  0.88252202  0.74222623    -0.06300
N2094       N  0.96625634  0.92014186  0.71239228    -0.46500
N2095       N  0.59582088  0.51680762  0.82411322    -0.46700
C2096       C  0.61009669  0.89442690  0.72120855     0.42600
N2097       N  0.56602111  0.90806319  0.79654096     0.01500
N2098       N  0.56702873  0.50889258  0.72627920    -0.25400
N2099       N  0.98886656  0.90637118  0.74581618    -0.25900
N2100       N  0.56830032  0.53380103  0.74216019     0.01100
H2101       H  0.59499904  0.50222157  0.69432124     0.07000
H2102       H  0.60452711  0.57976697  0.78475592     0.07100
N2103       N  0.56579484  0.93294037  0.81245448    -0.25900
N2104       N  0.99191781  0.53876674  0.79339807    -0.25500
N2105       N  0.56667270  0.92916761  0.72880585     0.01500
C2106       C  0.94256243  0.90076340  0.81754361     0.42900
C2107       C  0.96381688  0.51480899  0.71256759    -0.06800
N2108       N  0.56945137  0.53599809  0.79286029    -0.25500
H2109       H  0.96255987  0.58697641  0.78668547     0.07000
N2110       N  0.96075270  0.88855441  0.79928133    -0.46800
H2111       H  0.95749708  0.49841188  0.69793790     0.07000
C2112       C  0.60818694  0.54937953  0.71805043     0.42700
C2113       C  0.96356291  0.88196583  0.74219809    -0.06300
Co2114     Co  0.52828087  0.96889680  0.72729401     0.73800
N2115       N  0.96489396  0.55867129  0.73922986    -0.46500
C2116       C  0.60578998  0.89111684  0.82038208     0.43000
N2117       N  0.59239937  0.92340268  0.71377753    -0.46500
Co2118     Co  0.53002326  0.53655391  0.76775030     0.73900
C2119       C  0.59751226  0.55757439  0.79562104    -0.06800
C2120       C  0.96096463  0.93234155  0.82593072    -0.06400
N2121       N  0.56634354  0.90563474  0.74556849    -0.25900
N2122       N  0.96885515  0.52510230  0.82679757    -0.46700
H2123       H  0.59454940  0.93871324  0.84417547     0.07000
C2124       C  0.59109205  0.51671453  0.71007635    -0.06800
Cl2125     Cl  0.52859185  0.97169165  0.76943392    -0.49800
C2126       C  0.94712140  0.54747102  0.72055025     0.42800
H2127       H  0.59922573  0.85989465  0.75292124     0.07000
N2128       N  0.59243621  0.55855874  0.73783785    -0.46500
C2129       C  0.72598577  0.49604572  0.94680872     0.29900
C2130       C  0.70777726  0.48768155  0.92658457    -0.36400
C2131       C  0.70522928  0.51512947  0.91041633     0.15900
C2132       C  0.72004867  0.54838855  0.91374193     0.21700
C2133       C  0.73725324  0.05710875  0.93424532    -0.34500
C2134       C  0.73988202  0.52961668  0.95048063     0.15800
O2135       O  0.73227540  0.47412088  0.96391054    -0.26600
C2136       C  0.74974008  0.99399162  0.97889653     0.05600
C2137       C  0.75487548  0.02891245  0.97160751    -0.31400
O2138       O  0.71526586  0.56972433  0.89608955    -0.23300
C2139       C  0.69675185  0.55001646  0.88136672    -0.03300
C2140       C  0.68961061  0.51586343  0.88944376    -0.17700
H2141       H  0.69655299  0.46151482  0.92360919     0.20300
H2142       H  0.74863934  0.08320539  0.93719573     0.18700
H2143       H  0.76890800  0.05015379  0.98027869     0.18600
H2144       H  0.67529463  0.49459124  0.88097743     0.14500
C2145       C  0.83629622  0.88504838  0.91368267     0.29900
C2146       C  0.81823893  0.87436597  0.93351146    -0.36400
C2147       C  0.81380375  0.90066789  0.95030809     0.15900
C2148       C  0.82596184  0.93513478  0.94757845     0.21700
C2149       C  0.84456882  0.94560134  0.92800151    -0.34500
C2150       C  0.84931801  0.91926532  0.91136313     0.15800
O2151       O  0.84255141  0.86522802  0.89553127    -0.26600
C2152       C  0.86015628  0.88696705  0.88158841     0.05600
C2153       C  0.86532184  0.92084494  0.89059613    -0.31400
O2154       O  0.81746056  0.95588076  0.96481804    -0.23300
C2155       C  0.79998254  0.93442927  0.97894776    -0.03300
C2156       C  0.79708678  0.89963334  0.97095860    -0.17700
H2157       H  0.80798202  0.84760169  0.93556324     0.20300
H2158       H  0.85423522  0.97255777  0.92576962     0.18700
H2159       H  0.87835547  0.94348582  0.88277537     0.18600
H2160       H  0.78368644  0.87730969  0.97887879     0.14500
C2161       C  0.59853517  0.67981778  0.58707850     0.29900
C2162       C  0.62976386  0.67357206  0.59965179    -0.36400
C2163       C  0.62606180  0.65189661  0.61903588     0.15900
C2164       C  0.59394333  0.63703217  0.62536043     0.21700
C2165       C  0.56269680  0.64374709  0.61303127    -0.34500
C2166       C  0.56628973  0.66581422  0.59391534     0.15800
O2167       O  0.59592764  0.69831895  0.56801004    -0.26600
C2168       C  0.56142958  0.69673164  0.56290676     0.05600
C2169       C  0.54172670  0.67693011  0.57845540    -0.31400
O2170       O  0.59629903  0.61807553  0.64419054    -0.23300
C2171       C  0.63028203  0.62103031  0.65024839    -0.03300
C2172       C  0.65011430  0.64188356  0.63526027    -0.17700
H2173       H  0.65511628  0.68485827  0.59469816     0.20300
H2174       H  0.53728811  0.63269073  0.61808253     0.18700
H2175       H  0.51364397  0.67056060  0.57789984     0.18600
H2176       H  0.67783633  0.64945562  0.63655468     0.14500
C2177       C  0.96665938  0.80581458  0.62599413     0.29900
C2178       C  0.99807186  0.79963658  0.61364180    -0.36400
C2179       C  0.99474857  0.77831058  0.59409663     0.15900
C2180       C  0.96260770  0.76452022  0.58690148     0.21700
C2181       C  0.93122042  0.77030264  0.59944225    -0.34500
C2182       C  0.93465161  0.79119569  0.61922947     0.15800
O2183       O  0.96397666  0.82405521  0.64515869    -0.26600
C2184       C  0.92986443  0.82089426  0.65094214     0.05600
C2185       C  0.91033849  0.80058810  0.63547070    -0.31400
O2186       O  0.96551383  0.74635692  0.56767581    -0.23300
C2187       C  0.50012096  0.74790665  0.56278475    -0.03300
C2188       C  0.51956695  0.76744752  0.57864485    -0.17700
H2189       H  0.52342754  0.81045281  0.61902120     0.20300
H2190       H  0.90594904  0.75914559  0.59420722     0.18700
H2191       H  0.88256746  0.79306432  0.63641114     0.18600
H2192       H  0.54770888  0.77359137  0.57840079     0.14500
C2193       C  0.57324835  0.78974664  0.95343636     0.29900
C2194       C  0.57886786  0.82081300  0.94057449    -0.36400
C2195       C  0.60003857  0.81693823  0.92099158     0.15900
C2196       C  0.61524041  0.78486280  0.91479556     0.21700
C2197       C  0.60949174  0.75380541  0.92758398    -0.34500
C2198       C  0.58767766  0.75751301  0.94683077     0.15800
O2199       O  0.55423737  0.78714856  0.97228948    -0.26600
C2200       C  0.55586564  0.75264945  0.97746949     0.05600
C2201       C  0.57633295  0.73294544  0.96225874    -0.31400
O2202       O  0.63287720  0.78690372  0.89541416    -0.23300
C2203       C  0.62867720  0.82062002  0.88891474    -0.03300
C2204       C  0.60844475  0.84059254  0.90417101    -0.17700
H2205       H  0.56700428  0.84606493  0.94526235     0.20300
H2206       H  0.62057124  0.72834828  0.92256766     0.18700
H2207       H  0.58264673  0.70481453  0.96288951     0.18600
H2208       H  0.59998909  0.86805876  0.90260593     0.14500
C2209       C  0.98615089  0.65648203  0.95246953     0.29900
C2210       C  0.98054284  0.62555225  0.93946082    -0.36400
C2211       C  0.95994650  0.62968447  0.91968704     0.15900
C2212       C  0.94534112  0.66192548  0.91333278     0.21700
C2213       C  0.95128857  0.69297547  0.92620534    -0.34500
C2214       C  0.97242613  0.68894855  0.94576867     0.15800
O2215       O  0.50430900  0.65860134  0.97167658    -0.26600
C2216       C  0.00284451  0.69300611  0.97711292     0.05600
C2217       C  0.98337146  0.71318948  0.96160736    -0.31400
O2218       O  0.92746637  0.65978179  0.89401138    -0.23300
C2219       C  0.93094042  0.62579929  0.88777463    -0.03300
C2220       C  0.95100782  0.60585855  0.90307607    -0.17700
H2221       H  0.99172453  0.60009046  0.94431770     0.20300
H2222       H  0.94054192  0.71854938  0.92117331     0.18700
H2223       H  0.97744485  0.74140908  0.96228485     0.18600
H2224       H  0.95865284  0.57811197  0.90180977     0.14500
C2225       C  0.86542769  0.53156006  0.62515013     0.29900
C2226       C  0.87620634  0.01520486  0.60472921    -0.36400
C2227       C  0.84918433  0.00810416  0.58891181     0.15900
C2228       C  0.81386174  0.51598023  0.59319601     0.21700
C2229       C  0.80308279  0.53241370  0.61351510    -0.34500
C2230       C  0.83020904  0.54008005  0.62910359     0.15800
O2231       O  0.88612931  0.53999609  0.64243974    -0.26600
C2232       C  0.86392757  0.55460168  0.65743926     0.05600
C2233       C  0.82884003  0.55556084  0.65005416    -0.31400
O2234       O  0.79283307  0.50578700  0.57651307    -0.23300
C2235       C  0.81506394  0.99161019  0.56115280    -0.03300
C2236       C  0.85050429  0.99276765  0.56786714    -0.17700
H2237       H  0.90377526  0.00865099  0.60141585     0.20300
H2238       H  0.77546363  0.53858675  0.61697258     0.18700
H2239       H  0.80569526  0.56550707  0.65902984     0.18600
H2240       H  0.87359578  0.98285065  0.55883516     0.14500
C2241       C  0.72299233  0.93167146  0.58874796     0.29900
C2242       C  0.69473194  0.93366470  0.60438825    -0.36400
C2243       C  0.69870402  0.91381177  0.62451744     0.15900
C2244       C  0.72824405  0.89304158  0.62884374     0.21700
C2245       C  0.75658577  0.89118444  0.61327088    -0.34500
C2246       C  0.75281117  0.91138882  0.59329091     0.15800
O2247       O  0.72522557  0.94864534  0.56907504    -0.26600
C2248       C  0.75703091  0.93933933  0.56105838     0.05600
C2249       C  0.77539455  0.91628415  0.57540083    -0.31400
O2250       O  0.72633654  0.87659693  0.64869342    -0.23300
C2251       C  0.69529901  0.88718965  0.65733335    -0.03300
C2252       C  0.67699320  0.91043163  0.64303309    -0.17700
H2253       H  0.67143579  0.94986174  0.60119477     0.20300
H2254       H  0.78010302  0.87537197  0.61660601     0.18700
H2255       H  0.80172256  0.90516707  0.57303923     0.18600
H2256       H  0.65135160  0.92283381  0.64582942     0.14500
C2257       C  0.69237407  0.53013892  0.12596858     0.29900
C2258       C  0.69508100  0.49934384  0.11248737    -0.36400
C2259       C  0.71869524  0.50124294  0.09401263     0.15900
C2260       C  0.73797007  0.53153204  0.08889394     0.21700
C2261       C  0.73563796  0.56219339  0.10257952    -0.34500
C2262       C  0.71223877  0.56017438  0.12120848     0.15800
O2263       O  0.67294953  0.53370457  0.14456188    -0.26600
C2264       C  0.68053242  0.56640253  0.15192479     0.05600
C2265       C  0.70483855  0.58413156  0.13804363    -0.31400
O2266       O  0.75723721  0.52785185  0.07020665    -0.23300
C2267       C  0.75065357  0.49455876  0.06357586    -0.03300
C2268       C  0.72701496  0.47670371  0.07776726    -0.17700
H2269       H  0.67999349  0.47548102  0.11623163     0.20300
H2270       H  0.75099169  0.58593502  0.09896817     0.18700
H2271       H  0.71646336  0.61024609  0.14054169     0.18600
H2272       H  0.71660814  0.44996166  0.07587029     0.14500
C2273       C  0.58304033  0.64741509  0.41030722     0.29900
C2274       C  0.55700078  0.64478727  0.42736140    -0.36400
C2275       C  0.56170831  0.66686217  0.44643567     0.15900
C2276       C  0.58998115  0.69013099  0.44861407     0.21700
C2277       C  0.61571236  0.69322270  0.43134205    -0.34500
C2278       C  0.61109810  0.67097380  0.41228816     0.15800
O2279       O  0.58457358  0.62827769  0.39144559    -0.26600
C2280       C  0.61392610  0.63979884  0.38111910     0.05600
C2281       C  0.63143215  0.66647753  0.39326111    -0.31400
O2282       O  0.58922182  0.70798211  0.46805203    -0.23300
C2283       C  0.56010901  0.69585602  0.47839617    -0.03300
C2284       C  0.54185324  0.67046418  0.46568817    -0.17700
H2285       H  0.53487482  0.62643441  0.42600283     0.20300
H2286       H  0.63799631  0.71136523  0.43277877     0.18700
H2287       H  0.65593554  0.68004110  0.38890537     0.18600
H2288       H  0.51721207  0.65708487  0.46994626     0.14500
C2289       C  0.85382560  0.50693332  0.45195154     0.29900
C2290       C  0.88407582  0.51112768  0.43805589    -0.36400
C2291       C  0.88035241  0.53438948  0.41941162     0.15900
C2292       C  0.84922048  0.55265075  0.41501112     0.21700
C2293       C  0.81901969  0.54824460  0.42876430    -0.34500
C2294       C  0.82250894  0.52456272  0.44708193     0.15800
O2295       O  0.85132896  0.98680701  0.47026724    -0.26600
C2296       C  0.81763880  0.99099037  0.47687107     0.05600
C2297       C  0.79848482  0.51421595  0.46311541    -0.31400
O2298       O  0.85113756  0.57227647  0.39641828    -0.23300
C2299       C  0.88385930  0.56647891  0.38860621    -0.03300
C2300       C  0.90326567  0.54300893  0.40220062    -0.17700
H2301       H  0.90874110  0.99710174  0.44131169     0.20300
H2302       H  0.79428482  0.56192471  0.42520090     0.18700
H2303       H  0.77118702  0.52292858  0.46504516     0.18600
H2304       H  0.92987874  0.53287117  0.39936774     0.14500
C2305       C  0.58509198  0.79909114  0.12844458     0.29900
C2306       C  0.56078296  0.80561490  0.11079670    -0.36400
C2307       C  0.56238252  0.78220869  0.09218444     0.15900
C2308       C  0.58609160  0.75412820  0.09110317     0.21700
C2309       C  0.61057240  0.74775683  0.10867175    -0.34500
C2310       C  0.60907233  0.77127586  0.12722844     0.15800
O2311       O  0.58806915  0.81749149  0.14750058    -0.26600
C2312       C  0.61433711  0.80130199  0.15861111     0.05600
C2313       C  0.62845188  0.77238569  0.14680751    -0.31400
O2314       O  0.58210646  0.73484527  0.07249810    -0.23300
C2315       C  0.55581597  0.75105601  0.06145133    -0.03300
C2316       C  0.54249794  0.78068031  0.07280662    -0.17700
H2317       H  0.54180956  0.82728421  0.11159106     0.20300
H2318       H  0.62924741  0.72581403  0.10801073     0.18700
H2319       H  0.64980763  0.75476883  0.15193405     0.18600
H2320       H  0.52070495  0.79781981  0.06779717     0.14500
C2321       C  0.98275274  0.69127971  0.09419259     0.29900
C2322       C  0.96631859  0.70085355  0.11475436    -0.36400
C2323       C  0.96237496  0.67352634  0.13078795     0.15900
C2324       C  0.97428260  0.63921166  0.12701915     0.21700
C2325       C  0.49033664  0.62951260  0.10627917    -0.34500
C2326       C  0.99379952  0.65677839  0.09005428     0.15800
O2327       O  0.98983629  0.71289478  0.07714519    -0.26600
C2328       C  0.00526191  0.69201494  0.06170728     0.05600
C2329       C  0.50825687  0.65671248  0.06869252    -0.31400
O2330       O  0.96841437  0.61811565  0.14460349    -0.23300
C2331       C  0.95214427  0.63913424  0.15964730    -0.03300
C2332       C  0.94754435  0.67384607  0.15194476    -0.17700
H2333       H  0.95736858  0.72779518  0.11804901     0.20300
H2334       H  0.49953263  0.60263777  0.10304900     0.18700
H2335       H  0.52032964  0.63463744  0.05965533     0.18600
H2336       H  0.93521554  0.69605048  0.16071749     0.14500
C2337       C  0.69190921  0.89593882  0.41900275     0.29900
C2338       C  0.68585459  0.91548959  0.43905989    -0.36400
C2339       C  0.71611639  0.92367314  0.45209799     0.15900
C2340       C  0.75008948  0.91378342  0.44573235     0.21700
C2341       C  0.75608486  0.89376160  0.42589543    -0.34500
C2342       C  0.72577687  0.88507141  0.41307686     0.15800
O2343       O  0.66775047  0.88653440  0.40374616    -0.26600
C2344       C  0.68637727  0.86874393  0.38812650     0.05600
C2345       C  0.72252009  0.86684724  0.39316274    -0.31400
O2346       O  0.77446933  0.92422387  0.46049500    -0.23300
C2347       C  0.75580557  0.94072263  0.47664776    -0.03300
C2348       C  0.71939442  0.94109193  0.47234505    -0.17700
H2349       H  0.65943325  0.92383622  0.44411774     0.20300
H2350       H  0.78252305  0.88547278  0.42082325     0.18700
H2351       H  0.74359823  0.85520589  0.38300110     0.18600
H2352       H  0.69840761  0.95210864  0.48285220     0.14500
C2353       C  0.86162465  0.90263003  0.12598367     0.29900
C2354       C  0.85456187  0.93348469  0.11328151    -0.36400
C2355       C  0.83253696  0.92912270  0.09419777     0.15900
C2356       C  0.81889116  0.89651560  0.08769472     0.21700
C2357       C  0.82556303  0.86563517  0.10061830    -0.34500
C2358       C  0.84716731  0.87012134  0.11999958     0.15800
O2359       O  0.88059726  0.90103268  0.14485611    -0.26600
C2360       C  0.87809693  0.86713189  0.15129932     0.05600
C2361       C  0.85747779  0.84661617  0.13651587    -0.31400
O2362       O  0.80004642  0.89852005  0.06869670    -0.23300
C2363       C  0.80103788  0.93302291  0.06330453    -0.03300
C2364       C  0.82087698  0.95324854  0.07859626    -0.17700
H2365       H  0.86526011  0.95920750  0.11807341     0.20300
H2366       H  0.81454847  0.83998990  0.09596618     0.18700
H2367       H  0.85033928  0.81877700  0.13808378     0.18600
H2368       H  0.82678884  0.98146297  0.07785139     0.14500
C2369       C  0.00070688  0.77011328  0.44639757     0.29900
C2370       C  0.00979637  0.78871979  0.42654035    -0.36400
C2371       C  0.98283492  0.79193713  0.41023058     0.15900
C2372       C  0.94944268  0.77722009  0.41305504     0.21700
C2373       C  0.94025298  0.75881958  0.43302250    -0.34500
C2374       C  0.96703994  0.75619753  0.44955452     0.15800
O2375       O  0.52194182  0.76375274  0.46372332    -0.26600
C2376       C  0.50145958  0.74614747  0.47836579     0.05600
C2377       C  0.96699433  0.74063308  0.47053593    -0.31400
O2378       O  0.92865270  0.78274840  0.39534115    -0.23300
C2379       C  0.94888897  0.80160186  0.38117154    -0.03300
C2380       C  0.98279629  0.80829661  0.38956023    -0.17700
H2381       H  0.03603982  0.79994461  0.42401167     0.20300
H2382       H  0.91406891  0.74743512  0.43550217     0.18700
H2383       H  0.94550786  0.72648416  0.47884727     0.18600
H2384       H  0.00436776  0.82260829  0.38144347     0.14500
loop_ 
_geom_bond_atom_site_label_1 
_geom_bond_atom_site_label_2 
_geom_bond_distance 
_geom_bond_site_symmetry_2 
_ccdc_geom_bond_type 
C1            N2   1.355       .  A
C1            N6   1.358       .  A
C1          C591   1.464       .  S
N2            C3   1.355       .  A
C3            N4   1.356       .  A
C3          C132   1.458       .  S
N4            C5   1.356       .  A
C5            N6   1.358       .  A
C5           C25   1.461       .  S
C7            N8   1.361       .  A
C7           N12   1.362       .  A
C7          C572   1.474       .  S
N8            C9   1.359       .  A
C9           N10   1.356       .  A
C9          C102   1.465       .  S
N10          C11   1.355       .  A
C11          N12   1.359       .  A
C11          C55   1.467       .  S
C13          N14   1.359       .  A
C13          N18   1.363       .  A
C13         C556   1.473       .  S
N14          C15   1.355       .  A
C15          N16   1.356       .  A
C15         C142   1.465       .  S
N16          C17   1.359       .  A
C17          N18   1.363       .  A
C17          C75   1.469       .  S
C19          N20   1.356       .  A
C19          N24   1.356       .  A
C19         C543   1.468       .  S
N20          C21   1.359       .  A
C21          N22   1.360       .  A
C21          C65   1.466       .  S
N22          C23   1.359       .  A
C23          N24   1.358       .  A
C23         C152   1.465       .  S
C25        N1235   1.347       .  A
C25          C62   1.457       .  S
N26          N43   1.323       .  A
N26        N1240   1.322       .  A
N26         Co63   2.077   1_655  S
C27          N52   1.338       .  A
C27        C1257   1.456       .  S
C27          H72   1.082   1_655  S
H28          C69   1.082       .  S
C29          N53   1.338       .  A
C29          C33   1.456       .  S
C29          H58   1.082       .  S
Co30         N48   2.091       .  S
Co30         N38   2.079       .  S
Co30        N666   2.073       .  S
Co30        N642   2.094       .  S
Co30      Cl1266   2.430       .  S
N31          C69   1.345       .  A
N31        N1230   1.319       .  A
N31         Co32   2.091   1_655  S
Co32         N35   2.079       .  S
Co32        N648   2.078   1_455  S
Co32        N635   2.089       .  S
Co32        Cl74   2.472       .  S
C33          N71   1.348       .  A
C33          C80   1.462       .  S
N34          N41   1.319       .  A
N34          N64   1.323       .  A
N34         Co67   2.083       .  S
N35          N53   1.323       .  A
N35          N71   1.325       .  A
N36          C65   1.350       .  A
N36          N46   1.326       .  A
H37          C62   1.082       .  S
N38          N59   1.323       .  A
N38        N1223   1.319       .  A
N39          N57   1.320       .  A
N39          N44   1.327       .  A
N39        Co628   2.089   1_545  S
C40          N44   1.351       .  A
C40          C68   1.454       .  S
C40          C98   1.464       .  S
N41          C56   1.346       .  A
N41         Co63   2.090       .  S
C42          N70   1.336       .  A
C42          C45   1.454       .  S
C42          H76   1.082       .  S
N43        C1217   1.347       .  A
C45        N1258   1.350       .  A
C45          C86   1.461       .  S
N46        N1244   1.321       .  A
N46        Co626   2.094   1_545  S
N47          C73   1.340       .  A
N47          N49   1.321       .  A
N47        Co659   2.076   1_545  S
N48          C62   1.340       .  A
N48        N1218   1.322       .  A
N49          N77   1.326       .  A
N49        Co663   2.097   1_545  S
H50          C73   1.082       .  S
H51          C68   1.082       .  S
N52        N1238   1.321       .  A
N52        Co628   2.079   1_645  S
N53         Co67   2.089       .  S
N54          N66   1.326       .  A
N54        N1262   1.319       .  A
N54        Co659   2.084   1_645  S
C55          N59   1.347       .  A
C55        C1261   1.462       .  S
C56          C75   1.463       .  S
C56          H60   1.082       .  S
N57          C68   1.338       .  A
N57        Co663   2.075   1_545  S
C61          N77   1.351       .  A
C61          C73   1.456       .  S
C61          C92   1.467       .  S
Co63        N643   2.076       .  S
Co63        N650   2.084   1_455  S
Co63        Cl74   2.474       .  S
N64          C75   1.348       .  A
C65        C1219   1.456       .  S
N66        C1237   1.350       .  A
Co67        N645   2.096       .  S
Co67        N653   2.075       .  S
Co67        Cl74   2.428       .  S
C69        C1247   1.462       .  S
N70        N1246   1.319       .  A
N70        Co626   2.073   1_545  S
Cl74      Co1222   2.430   1_455  S
C78          N79   1.360       .  A
C78          N83   1.361       .  A
C78         C524   1.469       .  S
N79          C80   1.358       .  A
C80          N81   1.353       .  A
N81          C82   1.353       .  A
C82          N83   1.357       .  A
C82         C122   1.461       .  S
C84          N85   1.361       .  A
C84          N89   1.364       .  A
C84         C511   1.474       .  S
N85          C86   1.357       .  A
C86          N87   1.353       .  A
N87          C88   1.354       .  A
C88          N89   1.360       .  A
C88         C110   1.466       .  S
C90          N91   1.360       .  A
C90          N95   1.358       .  A
C90         C492   1.473       .  S
N91          C92   1.360       .  A
C92          N93   1.357       .  A
N93          C94   1.357       .  A
C94          N95   1.357       .  A
C94         C117   1.464       .  S
C96          N97   1.361       .  A
C96         N101   1.360       .  A
C96         C476   1.472       .  S
N97          C98   1.359       .  A
C98          N99   1.355       .  A
N99         C100   1.355       .  A
C100        N101   1.358       .  A
C100        C138   1.462       .  S
C102        N120   1.351       .  A
C102        C139   1.455       .  S
N103        N120   1.327       .  A
N103        N125   1.319       .  A
N103       Co140   2.087       .  S
C104        N129   1.343       .  A
C104        C142   1.461       .  S
C104        H149   1.082       .  S
H105        C146   1.082       .  S
C106        N130   1.336       .  A
C106        C110   1.453       .  S
C106        H135   1.082       .  S
Co107       N125   2.077       .  S
Co107       N115   2.087       .  S
Co107       N147   2.085       .  S
Co107       N123   2.079       .  S
Co107      Cl151   2.429       .  S
N108        C146   1.337       .  A
N108        N115   1.321       .  A
N108       Co109   2.073       .  S
Co109       N112   2.092       .  S
Co109       N129   2.090       .  S
Co109       N116   2.078       .  S
Co109      Cl151   2.471       .  S
C110        N148   1.352       .  A
N111        N118   1.321       .  A
N111        N141   1.327       .  A
N111       Co144   2.096       .  S
N112        N130   1.319       .  A
N112        N148   1.329       .  A
N113        C142   1.347       .  A
N113        N123   1.324       .  A
H114        C139   1.082       .  S
N115        N136   1.324       .  A
N116        N134   1.322       .  A
N116        N121   1.324       .  A
C117        N121   1.348       .  A
C117        C145   1.458       .  S
N118        C133   1.337       .  A
N118       Co140   2.074       .  S
C119        N147   1.337       .  A
C119        C122   1.455       .  S
C119        H153   1.082       .  S
C122        N143   1.349       .  A
N123        N129   1.319       .  A
N124        C150   1.344       .  A
N124        N126   1.319       .  A
N124       Co140   2.085       .  S
N125        C139   1.338       .  A
N126        N154   1.322       .  A
N126       Co144   2.076       .  S
H127        C150   1.082       .  S
H128        C145   1.082       .  S
N130       Co144   2.074       .  S
N131        N143   1.325       .  A
N131        N147   1.321       .  A
N131       Co140   2.080       .  S
C132        N136   1.348       .  A
C132        C146   1.454       .  S
C133        C152   1.454       .  S
C133        H137   1.082       .  S
N134        C145   1.341       .  A
N134       Co144   2.092       .  S
C138        N154   1.346       .  A
C138        C150   1.460       .  S
Co140      Cl151   2.472       .  S
N141        C152   1.351       .  A
Co144      Cl151   2.429       .  S
C155        C559   1.477       .  S
C155        C156   1.416       .  A
C155        C160   1.405       .  A
C156        C508   1.478       .  S
C156        C157   1.403       .  A
C157        H758   1.085       .  S
C157        C158   1.404       .  A
C158        C447   1.473       .  S
C158        C159   1.410       .  A
C159        C460   1.478       .  S
C159        C160   1.398       .  A
C160        H161   1.085       .  S
H162        C753   1.085   1_545  S
C163        C527   1.471       .  S
C163        C164   1.409       .  A
C163        C168   1.399       .  A
C164       C1732   1.477       .  S
C164       C1357   1.403       .  A
C165        H170   1.084       .  S
C165       C1356   1.403       .  A
C165       C1358   1.406   1_554  A
C166       C1620   1.479       .  S
C166        C167   1.415       .  A
C166       C1357   1.406   1_556  A
C167        C412   1.475       .  S
C167        C168   1.401   1_556  A
C168        H169   1.085       .  S
C171        C495   1.478       .  S
C171        C172   1.408       .  A
C171        C176   1.401       .  A
C172        C588   1.471       .  S
C172        C173   1.402       .  A
C173       H1370   1.084   1_455  S
C173        C174   1.404       .  A
C174        C399   1.481       .  S
C174        C175   1.418       .  A
C175        C380   1.478       .  S
C175        C176   1.406       .  A
C176        H177   1.084       .  S
H178       C1365   1.084       .  S
C179       C1075   1.475       .  S
C179        C180   1.415       .  A
C179        C184   1.405       .  A
C180        C575   1.483       .  S
C180        C181   1.404       .  A
C181        H186   1.084       .  S
C181        C182   1.405       .  A
C182        C367   1.474   1_554  S
C182        C183   1.411       .  A
C183        C348   1.483   1_554  S
C183        C184   1.403       .  A
C184        H781   1.084       .  S
H185        C780   1.085   1_545  S
C187        N188   1.359       .  A
C187        N192   1.358       .  A
C187        C364   1.468       .  S
N188        C189   1.358       .  A
C189        N190   1.357       .  A
C189        C318   1.466       .  S
N190        C191   1.358       .  A
C191        N192   1.358       .  A
C191        C223   1.464       .  S
C193        N194   1.364       .  A
C193        N198   1.362       .  A
C193        C431   1.474       .  S
N194        C195   1.360       .  A
C195        N196   1.353       .  A
C195        C296   1.466       .  S
N196        C197   1.354       .  A
C197        N198   1.359       .  A
C197        C243   1.463       .  S
C199        N200   1.360       .  A
C199        N204   1.361       .  A
C199        C351   1.476       .  S
N200        C201   1.359       .  A
C201        N202   1.356       .  A
C201        C303   1.464       .  S
N202        C203   1.355       .  A
C203        N204   1.362       .  A
C203        C259   1.469       .  S
C205        N206   1.359       .  A
C205        N210   1.361       .  A
C205        C415   1.471       .  S
N206        C207   1.357       .  A
C207        N208   1.357       .  A
C207        C273   1.465       .  S
N208        C209   1.358       .  A
C209        N210   1.360       .  A
C209        C328   1.467       .  S
C211        N212   1.362       .  A
C211        N216   1.361       .  A
C211        C383   1.471       .  S
N212        C213   1.360       .  A
C213        N214   1.355       .  A
C213        C238   1.464       .  S
N214        C215   1.354       .  A
C215        N216   1.358       .  A
C215        C324   1.464       .  S
C217        N218   1.355       .  A
C217        N222   1.352       .  A
C217        C444   1.462       .  S
N218        C219   1.358       .  A
C219        N220   1.361       .  A
C219        C263   1.464       .  S
N220        C221   1.360       .  A
C221        N222   1.355       .  A
C221        C338   1.462       .  S
C223        N241   1.349       .  A
C223        C260   1.456       .  S
N224        N241   1.325       .  A
N224        N246   1.322       .  A
N224       Co261   2.083       .  S
C225        N250   1.338       .  A
C225        C263   1.456       .  S
C225        H270   1.082       .  S
H226        C267   1.082       .  S
C227        N251   1.339       .  A
C227        C231   1.458       .  S
C227        H256   1.081       .  S
Co228       N246   2.088       .  S
Co228       N236   2.080       .  S
Co228       N268   2.072       .  S
Co228       N244   2.093       .  S
Co228      Cl272   2.429       .  S
N229        C267   1.345       .  A
N229        N236   1.319       .  A
N229       Co230   2.087       .  S
Co230       N233   2.077       .  S
Co230       N250   2.075       .  S
Co230       N237   2.087       .  S
Co230      Cl272   2.474       .  S
C231        N269   1.348       .  A
C231        C284   1.464       .  S
N232        N239   1.319       .  A
N232        N262   1.323       .  A
N232       Co265   2.076       .  S
N233        N251   1.322       .  A
N233        N269   1.325       .  A
N234        C263   1.350       .  A
N234        N244   1.326       .  A
H235        C260   1.082       .  S
N236        N257   1.323       .  A
N237        N255   1.319       .  A
N237        N242   1.327       .  A
C238        N242   1.350       .  A
C238        C266   1.454       .  S
N239        C254   1.344       .  A
N239       Co261   2.091       .  S
C240        N268   1.336       .  A
C240        C243   1.452       .  S
C240        H274   1.082       .  S
C243        N264   1.352       .  A
N244        N250   1.321       .  A
N245        C271   1.340       .  A
N245        N247   1.322       .  A
N245       Co261   2.078       .  S
N246        C260   1.340       .  A
N247        N275   1.327       .  A
N247       Co265   2.105       .  S
H248        C271   1.082       .  S
H249        C266   1.082       .  S
N251       Co265   2.097       .  S
N252        N264   1.328       .  A
N252        N268   1.319       .  A
N252       Co261   2.090       .  S
C253        N257   1.348       .  A
C253        C267   1.461       .  S
C253        C280   1.466       .  S
C254        C273   1.462       .  S
C254        H258   1.082       .  S
N255        C266   1.337       .  A
N255       Co265   2.076       .  S
C259        N275   1.353       .  A
C259        C271   1.454       .  S
Co261      Cl272   2.473       .  S
N262        C273   1.346       .  A
Co265      Cl272   2.429       .  S
C276        N277   1.362       .  A
C276        N281   1.361       .  A
C276        C396   1.474       .  S
N277        C278   1.359       .  A
C278        N279   1.357       .  A
C278        C288   1.467       .  S
N279        C280   1.356       .  A
C280        N281   1.359       .  A
C282        N283   1.361       .  A
C282        N287   1.363       .  A
C282        C463   1.475       .  S
N283        C284   1.359       .  A
C284        N285   1.353       .  A
N285        C286   1.353       .  A
C286        N287   1.361       .  A
C286        C308   1.466       .  S
C288        N306   1.353       .  A
C288        C325   1.452       .  S
N289        N306   1.329       .  A
N289        N311   1.319       .  A
N289      Co1518   2.096       .  S
C290        N315   1.344       .  A
C290        C328   1.461       .  S
C290        H335   1.082       .  S
H291        C332   1.082       .  S
C292        N316   1.337       .  A
C292        C296   1.455       .  S
C292        H321   1.082       .  S
Co293       N333   2.097       .  S
Co293       N309   2.082       .  S
Co293      N1503   2.072   1_455  S
Co293      N1493   2.097   1_455  S
Co293      Cl337   2.428       .  S
N294        C332   1.340       .  A
N294        N301   1.322       .  A
N294      Co1487   2.079       .  S
Co295       N315   2.087       .  S
Co295      N1486   2.079   1_455  S
Co295      N2086   2.088   1_455  S
Co295       N898   2.080       .  S
Co295      Cl337   2.475       .  S
C296        N334   1.351       .  A
N297        N304   1.322       .  A
N297        N327   1.327       .  A
N297      Co1522   2.093       .  S
N298        N316   1.319       .  A
N298        N334   1.328       .  A
N298      Co2083   2.089   1_545  S
N299        C328   1.348       .  A
N299        N309   1.324       .  A
H300        C325   1.082       .  S
N301        N322   1.325       .  A
N301      Co1485   2.097       .  S
N302        N320   1.322       .  A
N302        N307   1.325       .  A
N302       Co891   2.080   1_545  S
C303        N307   1.349       .  A
C303        C331   1.457       .  S
N304        C319   1.335       .  A
N304      Co2114   2.074   1_545  S
C305        N333   1.340       .  A
C305        C308   1.460       .  S
C305        H339   1.082       .  S
C308        N329   1.347       .  A
N309        N315   1.319       .  A
N310        C336   1.344       .  A
N310        N312   1.319       .  A
N310       Co922   2.087   1_545  S
N311        C325   1.337       .  A
N311      Co1485   2.072       .  S
N312        N340   1.323       .  A
N312       Co330   2.081       .  S
H313        C336   1.082       .  S
H314        C331   1.082       .  S
N316      Co1522   2.078       .  S
N317        N329   1.325       .  A
N317        N333   1.322       .  A
N317       Co326   2.076       .  S
C318        N322   1.350       .  A
C318        C332   1.457       .  S
C319        C338   1.454       .  S
C319        H323   1.082   1_545  S
N320        C331   1.339       .  A
N320       Co330   2.089       .  S
C324        N340   1.347       .  A
C324        C336   1.460       .  S
Co326      N1481   2.096   1_455  S
Co326      N2092   2.074   1_455  S
Co326       N906   2.086       .  S
Co326      Cl337   2.474       .  S
N327        C338   1.350       .  A
Co330      N1489   2.093   1_455  S
Co330      N1508   2.078   1_455  S
Co330      Cl933   2.430   1_545  S
Cl337      Co926   2.430       .  S
C341        C346   1.380   1_565  A
C341        C342   1.405       .  A
C341        O347   1.319       .  A
C342        H353   1.082       .  S
C342        C343   1.404   1_565  A
C343        C352   1.363       .  A
C343        C344   1.380       .  A
C344        C941   1.406       .  A
C344        O350   1.322       .  A
C345        H354   1.082       .  S
C345        C940   1.407       .  A
C345        C942   1.406       .  A
C346        C941   1.406       .  A
C346        C945   1.366       .  A
O347        C944   1.332       .  A
C348        C349   1.392       .  A
C348        O943   1.332       .  A
C349        H355   1.082       .  S
C349        C942   1.366       .  A
O350        C351   1.332       .  A
C351        C352   1.393       .  A
C352        H356   1.083   1_545  S
C357        C362   1.380       .  A
C357        C358   1.405       .  A
C357        O363   1.319       .  A
C358        H369   1.082       .  S
C358        C359   1.404       .  A
C359        C368   1.365       .  A
C359        C360   1.381       .  A
C360        C361   1.401       .  A
C360        O366   1.315       .  A
C361        H370   1.082       .  S
C361        C362   1.400       .  A
C362        C365   1.360       .  A
O363        C364   1.331       .  A
C364        C365   1.390       .  A
C365        H371   1.083       .  S
O366        C367   1.329       .  A
C367        C368   1.391       .  A
C368        H372   1.082       .  S
C373        C378   1.380       .  A
C373        C374   1.406       .  A
C373        O379   1.321       .  A
C374        H385   1.082       .  S
C374        C375   1.405       .  A
C375        C384   1.366       .  A
C375        C376   1.380       .  A
C376        C377   1.402       .  A
C376        O382   1.317       .  A
C377        H386   1.082       .  S
C377        C378   1.401       .  A
C378        C381   1.360       .  A
O379        C380   1.332       .  A
C380        C381   1.390       .  A
C381        H387   1.082       .  S
O382        C383   1.330       .  A
C383        C384   1.393       .  A
C384        H388   1.082       .  S
C389        C394   1.380       .  A
C389        C390   1.404       .  A
C389        O395   1.319       .  A
C390       H1593   1.082       .  S
C390        C391   1.403       .  A
C391        C392   1.380       .  A
C391       C1592   1.362       .  A
C392        C393   1.406       .  A
C392        O398   1.321       .  A
C393        H402   1.082       .  S
C393        C394   1.406       .  A
C394        C397   1.365       .  A
O395        C396   1.331       .  A
C396        C397   1.393       .  A
C397        H403   1.082       .  S
O398       C1591   1.332       .  A
C399        C400   1.391       .  A
C399       O1590   1.332   1_455  A
C400        H404   1.082       .  S
C400       C1583   1.362   1_455  A
H401       C1582   1.082   1_455  S
C405        C410   1.380       .  A
C405        C406   1.405       .  A
C405        O411   1.320       .  A
C406        H417   1.082       .  S
C406        C407   1.404       .  A
C407        C416   1.364       .  A
C407        C408   1.380       .  A
C408        C409   1.403       .  A
C408        O414   1.318       .  A
C409        H418   1.082       .  S
C409        C410   1.402       .  A
C410        C413   1.361       .  A
O411        C412   1.331       .  A
C412        C413   1.390       .  A
C413        H419   1.082       .  S
O414        C415   1.331       .  A
C415        C416   1.392       .  A
C416        H420   1.082       .  S
C421        C426   1.380       .  A
C421        C422   1.404       .  A
C421       O1619   1.320       .  A
C422        H433   1.082       .  S
C422        C423   1.403       .  A
C423        C432   1.364       .  A
C423        C424   1.380       .  A
C424        C425   1.406       .  A
C424        O430   1.320       .  A
C425        H434   1.082       .  S
C425        C426   1.404       .  A
C426        C429   1.363       .  A
O427       C1613   1.320   1_455  A
O427       C1620   1.330       .  A
C428       C1358   1.479       .  S
C428        C429   1.392       .  A
C428       O1619   1.330       .  A
C429        H435   1.083       .  S
O430        C431   1.332       .  A
C431        C432   1.391       .  A
C432        H436   1.082       .  S
C437        C442   1.381       .  A
C437       C1034   1.403       .  A
C437        O443   1.317       .  A
C438        H449   1.082       .  S
C438        C439   1.401       .  A
C438       C1033   1.403       .  A
C439        C448   1.362       .  A
C439       C1036   1.381       .  A
C440        C441   1.401       .  A
C440       C1035   1.381       .  A
C440        O446   1.315       .  A
C441        H450   1.082       .  S
C441        C442   1.399       .  A
C442        C445   1.360       .  A
O443        C444   1.330       .  A
C444        C445   1.389       .  A
C445        H451   1.083       .  S
O446       C1043   1.330   1_545  A
C447        C448   1.390       .  A
C447       O1042   1.330       .  A
C448        H452   1.082       .  S
C453        C458   1.381       .  A
C453        C454   1.405       .  A
C453        O459   1.321       .  A
C454        H465   1.082       .  S
C454        C455   1.405       .  A
C455        C464   1.364       .  A
C455        C456   1.380       .  A
C456        C457   1.404       .  A
C456        O462   1.320       .  A
C457        H466   1.082       .  S
C457        C458   1.403       .  A
C458        C461   1.362       .  A
O459        C460   1.331       .  A
C460        C461   1.391       .  A
C461        H467   1.082       .  S
O462        C463   1.332       .  A
C463        C464   1.393       .  A
C464        H468   1.082       .  S
C469        C474   1.380       .  A
C469        C470   1.403   1_545  A
C469        O475   1.319       .  A
C470        H481   1.082       .  S
C470        C471   1.402   1_565  A
C471        C480   1.361   1_545  A
C471        C472   1.381       .  A
C472        C473   1.404       .  A
C472        O478   1.320       .  A
C473        H482   1.086       .  S
C473        C474   1.404       .  A
C474        C477   1.363       .  A
O475        C476   1.331       .  A
C476        C477   1.393       .  A
C477        H483   1.081       .  S
O478        C479   1.331   1_545  A
C479        C775   1.475       .  S
C479        C480   1.390       .  A
C480        H484   1.080       .  S
C485        C490   1.380       .  A
C485        C486   1.403       .  A
C485        O491   1.319       .  A
C486        H497   1.082       .  S
C486        C487   1.402       .  A
C487        C496   1.360       .  A
C487        C488   1.381       .  A
C488        C489   1.405       .  A
C488        O494   1.322       .  A
C489        H498   1.082       .  S
C489        C490   1.405       .  A
C490        C493   1.363       .  A
O491        C492   1.330       .  A
C492        C493   1.393       .  A
C493        H499   1.083       .  S
O494        C495   1.331       .  A
C495        C496   1.390       .  A
C496        H500   1.082       .  S
C501        C506   1.380       .  A
C501        C502   1.407       .  A
C501       O1103   1.322   1_545  A
C502       H1109   1.083   1_545  S
C502        C503   1.407       .  A
C503        C512   1.365       .  A
C503        C504   1.380       .  A
C504        C505   1.402       .  A
C504        O510   1.319       .  A
C505        H514   1.082       .  S
C505        C506   1.401       .  A
C506        C509   1.360       .  A
O507        C508   1.333       .  A
O507       C1097   1.322       .  A
C508       C1105   1.389       .  A
C509        H515   1.082       .  S
C509       C1104   1.389   1_545  A
O510        C511   1.330       .  A
C511        C512   1.395       .  A
C512        H516   1.083       .  S
H513       C1098   1.083       .  S
C517        C522   1.381       .  A
C517        C518   1.403       .  A
C517        O523   1.318       .  A
C518        H529   1.082       .  S
C518        C519   1.402       .  A
C519        C528   1.362       .  A
C519        C520   1.381       .  A
C520        C521   1.402       .  A
C520        O526   1.317       .  A
C521        H530   1.082       .  S
C521        C522   1.401       .  A
C522        C525   1.361       .  A
O523        C524   1.330       .  A
C524        C525   1.391       .  A
C525        H531   1.083       .  S
O526        C527   1.329       .  A
C527        C528   1.389       .  A
C528        H532   1.082       .  S
C533        C538   1.381       .  A
C533        C534   1.401       .  A
C533        O539   1.315       .  A
C534        H545   1.082       .  S
C534        C535   1.400       .  A
C535        C544   1.360       .  A
C535        C536   1.380       .  A
C536       C1729   1.405       .  A
C536        O542   1.319       .  A
C537        H546   1.082       .  S
C537       C1728   1.405       .  A
C537       C1730   1.404       .  A
C538       C1729   1.404       .  A
C538       C1733   1.365       .  A
O539        C540   1.329       .  A
C540       C1356   1.477       .  S
C540       C1733   1.392       .  A
C541        H547   1.082       .  S
C541       C1730   1.365   1_455  A
C541       C1732   1.392       .  A
O542        C543   1.331       .  A
C543        C544   1.390       .  A
C544        H548   1.083       .  S
C549        C554   1.381       .  A
C549        C550   1.404       .  A
C549        O555   1.323       .  A
C550        H561   1.082       .  S
C550        C551   1.405       .  A
C551        C560   1.361       .  A
C551        C552   1.381       .  A
C552        C553   1.402       .  A
C552        O558   1.320       .  A
C553        H562   1.082       .  S
C553        C554   1.403       .  A
C554        C557   1.358       .  A
O555        C556   1.332       .  A
C556        C557   1.392       .  A
C557        H563   1.083       .  S
O558        C559   1.331       .  A
C559        C560   1.392       .  A
C560        H564   1.082       .  S
C565        C570   1.380       .  A
C565        C566   1.403       .  A
C565        O571   1.318       .  A
C566        H577   1.082       .  S
C566        C567   1.402       .  A
C567        C576   1.360       .  A
C567        C568   1.380       .  A
C568        C569   1.408       .  A
C568        O574   1.323       .  A
C569        H578   1.082       .  S
C569        C570   1.407       .  A
C570        C573   1.367       .  A
O571        C572   1.331       .  A
C572        C573   1.394       .  A
C573        H579   1.082       .  S
O574        C575   1.333       .  A
C575        C576   1.391       .  A
C576        H580   1.082       .  S
C581        C586   1.381       .  A
C581        C582   1.401       .  A
C581       O1779   1.315       .  A
C582        H593   1.082       .  S
C582        C583   1.399       .  A
C583        C592   1.360       .  A
C583        C584   1.381       .  A
C584        C585   1.403       .  A
C584        O590   1.317       .  A
C585        H594   1.082       .  S
C585        C586   1.402       .  A
C586        C589   1.363       .  A
O587        C588   1.329       .  A
O587       C1773   1.315       .  A
C588       C1781   1.389   1_455  A
C589        H595   1.082       .  S
C589       C1780   1.389       .  A
O590        C591   1.330       .  A
C591        C592   1.389       .  A
C592        H596   1.083       .  S
C597        N598   1.355       .  A
C597        N602   1.358       .  A
C597       C1187   1.463       .  S
N598        C599   1.355       .  A
C599        N600   1.356       .  A
C599        C728   1.457       .  S
N600        C601   1.356       .  A
C601        N602   1.358       .  A
C601        C621   1.461       .  S
C603        N604   1.362       .  A
C603        N608   1.362       .  A
C603       C1168   1.474       .  S
N604        C605   1.360       .  A
C605        N606   1.356       .  A
C605        C698   1.465       .  S
N606        C607   1.355       .  A
C607        N608   1.359       .  A
C607        C651   1.467       .  S
C609        N610   1.358       .  A
C609        N614   1.363       .  A
C609       C1152   1.473       .  S
N610        C611   1.354       .  A
C611        N612   1.356       .  A
C611        C738   1.464       .  S
N612        C613   1.359       .  A
C613        N614   1.363       .  A
C613        C671   1.469       .  S
C615        N616   1.355       .  A
C615        N620   1.356       .  A
C615       C1139   1.467       .  S
N616        C617   1.358       .  A
C617        N618   1.360       .  A
C617        C661   1.466       .  S
N618        C619   1.359       .  A
C619        N620   1.357       .  A
C619        C748   1.465       .  S
C621       N1831   1.347       .  A
C621        C658   1.457       .  S
N622        N639   1.323       .  A
N622       N1836   1.322       .  A
N622       Co659   2.077   1_655  S
C623        N648   1.338       .  A
C623       C1853   1.456       .  S
C623        H668   1.082   1_655  S
H624        C665   1.082       .  S
C625        N649   1.338       .  A
C625        C629   1.456       .  S
C625        H654   1.082       .  S
Co626       N644   2.090       .  S
Co626       N634   2.079       .  S
Co626     Cl1862   2.430       .  S
N627        C665   1.345       .  A
N627       N1826   1.319       .  A
N627       Co628   2.091   1_655  S
Co628       N631   2.079       .  S
Co628      Cl670   2.472       .  S
C629        N667   1.348       .  A
C629        C676   1.462       .  S
N630        N637   1.319       .  A
N630        N660   1.323       .  A
N630       Co663   2.083       .  S
N631        N649   1.323       .  A
N631        N667   1.325       .  A
N632        C661   1.350       .  A
N632        N642   1.326       .  A
H633        C658   1.082       .  S
N634       N1819   1.319       .  A
N634        N655   1.323       .  A
N635        N653   1.320       .  A
N635        N640   1.327       .  A
C636        N640   1.351       .  A
C636        C664   1.454       .  S
C636        C694   1.464       .  S
N637        C652   1.346       .  A
N637       Co659   2.090       .  S
C638        N666   1.336       .  A
C638        C641   1.454       .  S
C638        H672   1.082       .  S
N639       C1813   1.347       .  A
C641       N1854   1.350       .  A
C641        C682   1.460       .  S
N642       N1840   1.321       .  A
N643        C669   1.340       .  A
N643        N645   1.321       .  A
N644        C658   1.340       .  A
N644       N1814   1.322       .  A
N645        N673   1.325       .  A
H646        C669   1.082       .  S
H647        C664   1.082       .  S
N648       N1834   1.321       .  A
N649       Co663   2.090       .  S
N650        N662   1.326       .  A
N650       N1858   1.319       .  A
C651        N655   1.347       .  A
C651       C1857   1.462       .  S
C652        C671   1.463       .  S
C652        H656   1.082       .  S
N653        C664   1.338       .  A
C657        N673   1.351       .  A
C657        C669   1.456       .  S
C657        C688   1.467       .  S
Co659      Cl670   2.474       .  S
N660        C671   1.347       .  A
C661       C1815   1.456       .  S
N662       C1833   1.350       .  A
Co663      Cl670   2.428       .  S
C665       C1843   1.462       .  S
N666       N1842   1.319       .  A
Cl670     Co1818   2.430   1_455  S
C674        N675   1.360       .  A
C674        N679   1.360       .  A
C674       C1120   1.468       .  S
N675        C676   1.358       .  A
C676        N677   1.353       .  A
N677        C678   1.353       .  A
C678        N679   1.357       .  A
C678        C718   1.461       .  S
C680        N681   1.361       .  A
C680        N685   1.364       .  A
C680       C1107   1.474       .  S
N681        C682   1.357       .  A
C682        N683   1.353       .  A
N683        C684   1.354       .  A
C684        N685   1.360       .  A
C684        C706   1.466       .  S
C686        N687   1.359       .  A
C686        N691   1.358       .  A
C686       C1088   1.472       .  S
N687        C688   1.360       .  A
C688        N689   1.357       .  A
N689        C690   1.357       .  A
C690        N691   1.357       .  A
C690        C713   1.463       .  S
C692        N693   1.361       .  A
C692        N697   1.361       .  A
C692       C1072   1.472       .  S
N693        C694   1.359       .  A
C694        N695   1.355       .  A
N695        C696   1.355       .  A
C696        N697   1.358       .  A
C696        C734   1.462       .  S
C698        N716   1.351       .  A
C698        C735   1.455       .  S
N699        N716   1.327       .  A
N699        N721   1.319       .  A
N699       Co736   2.087       .  S
C700        N725   1.343       .  A
C700        C738   1.461       .  S
C700        H745   1.082       .  S
H701        C742   1.082       .  S
C702        N726   1.336       .  A
C702        C706   1.453       .  S
C702        H731   1.082       .  S
Co703       N721   2.077       .  S
Co703       N711   2.086       .  S
Co703       N743   2.084       .  S
Co703       N719   2.078       .  S
Co703      Cl747   2.428       .  S
N704        C742   1.337       .  A
N704        N711   1.321       .  A
N704       Co705   2.073       .  S
Co705       N708   2.092       .  S
Co705       N725   2.090       .  S
Co705       N712   2.078       .  S
Co705      Cl747   2.471       .  S
C706        N744   1.352       .  A
N707        N714   1.321       .  A
N707        N737   1.327       .  A
N707       Co740   2.096       .  S
N708        N726   1.319       .  A
N708        N744   1.329       .  A
N709        C738   1.347       .  A
N709        N719   1.324       .  A
H710        C735   1.082       .  S
N711        N732   1.324       .  A
N712        N730   1.322       .  A
N712        N717   1.324       .  A
C713        N717   1.348       .  A
C713        C741   1.458       .  S
N714        C729   1.337       .  A
N714       Co736   2.073       .  S
C715        N743   1.337       .  A
C715        C718   1.455       .  S
C715        H749   1.082       .  S
C718        N739   1.349       .  A
N719        N725   1.319       .  A
N720        C746   1.344       .  A
N720        N722   1.319       .  A
N720       Co736   2.085       .  S
N721        C735   1.338       .  A
N722        N750   1.322       .  A
N722       Co740   2.076       .  S
H723        C746   1.082       .  S
H724        C741   1.082       .  S
N726       Co740   2.074       .  S
N727        N739   1.325       .  A
N727        N743   1.321       .  A
N727       Co736   2.080       .  S
C728        N732   1.348       .  A
C728        C742   1.454       .  S
C729        C748   1.454       .  S
C729        H733   1.082       .  S
N730        C741   1.341       .  A
N730       Co740   2.092       .  S
C734        N750   1.346       .  A
C734        C746   1.460       .  S
Co736      Cl747   2.472       .  S
N737        C748   1.351       .  A
Co740      Cl747   2.429       .  S
C751       C1155   1.477       .  S
C751        C752   1.416       .  A
C751        C756   1.406       .  A
C752       C1104   1.479       .  S
C752        C753   1.404       .  A
C753        C754   1.404       .  A
C754       C1043   1.473       .  S
C754        C755   1.410       .  A
C755       C1056   1.478       .  S
C755        C756   1.398       .  A
C756        H757   1.085       .  S
C759       C1123   1.470       .  S
C759        C760   1.409       .  A
C759        C764   1.399       .  A
C760       C2328   1.477       .  S
C760       C1953   1.403       .  A
C761        H766   1.084       .  S
C761       C1952   1.403       .  A
C761       C1954   1.405   1_554  A
C762       C2216   1.478       .  S
C762       C1953   1.405   1_556  A
C762        C763   1.415       .  A
C763       C1008   1.475       .  S
C763        C764   1.401   1_556  A
C764        H765   1.085       .  S
C767       C1091   1.478       .  S
C767        C768   1.408       .  A
C767        C772   1.401       .  A
C768       C1184   1.471       .  S
C768        C769   1.402       .  A
C769       H1966   1.084   1_455  S
C769        C770   1.403       .  A
C770        C995   1.481       .  S
C770        C771   1.418       .  A
C771        C976   1.477       .  S
C771        C772   1.406       .  A
C772        H773   1.084       .  S
H774       C1961   1.084       .  S
C775        C776   1.415       .  A
C775        C780   1.405       .  A
C776       C1171   1.483       .  S
C776        C777   1.404       .  A
C777        H782   1.084       .  S
C777        C778   1.404       .  A
C778        C963   1.473   1_554  S
C778        C779   1.411       .  A
C779        C944   1.483   1_554  S
C779        C780   1.403       .  A
C783        N784   1.359       .  A
C783        N788   1.357       .  A
C783        C960   1.467       .  S
N784        C785   1.357       .  A
C785        N786   1.357       .  A
C785        C914   1.466       .  S
N786        C787   1.358       .  A
C787        N788   1.358       .  A
C787        C819   1.464       .  S
C789        N790   1.363       .  A
C789        N794   1.362       .  A
C789       C1027   1.474       .  S
N790        C791   1.360       .  A
C791        N792   1.353       .  A
C791        C892   1.465       .  S
N792        C793   1.353       .  A
C793        N794   1.359       .  A
C793        C839   1.463       .  S
C795        N796   1.360       .  A
C795        N800   1.361       .  A
C795        C947   1.477       .  S
N796        C797   1.359       .  A
C797        N798   1.356       .  A
C797        C899   1.464       .  S
N798        C799   1.355       .  A
C799        N800   1.362       .  A
C799        C855   1.469       .  S
C801        N802   1.359       .  A
C801        N806   1.361       .  A
C801       C1011   1.472       .  S
N802        C803   1.357       .  A
C803        N804   1.357       .  A
C803        C869   1.465       .  S
N804        C805   1.358       .  A
C805        N806   1.360       .  A
C805        C924   1.467       .  S
C807        N808   1.362       .  A
C807        N812   1.361       .  A
C807        C979   1.472       .  S
N808        C809   1.360       .  A
C809        N810   1.355       .  A
C809        C834   1.463       .  S
N810        C811   1.354       .  A
C811        N812   1.358       .  A
C811        C920   1.464       .  S
C813        N814   1.355       .  A
C813        N818   1.352       .  A
C813       C1040   1.462       .  S
N814        C815   1.357       .  A
C815        N816   1.361       .  A
C815        C859   1.463       .  S
N816        C817   1.359       .  A
C817        N818   1.356       .  A
C817        C934   1.462       .  S
C819        N837   1.349       .  A
C819        C856   1.456       .  S
N820        N837   1.325       .  A
N820        N842   1.322       .  A
N820       Co857   2.083       .  S
C821        N846   1.338       .  A
C821        C859   1.456       .  S
C821        H866   1.082       .  S
H822        C863   1.082       .  S
C823        N847   1.339       .  A
C823        C827   1.459       .  S
C823        H852   1.081       .  S
Co824       N842   2.087       .  S
Co824       N832   2.080       .  S
Co824       N864   2.072       .  S
Co824       N840   2.092       .  S
Co824      Cl868   2.428       .  S
N825        C863   1.344       .  A
N825        N832   1.318       .  A
N825       Co826   2.087       .  S
Co826       N829   2.076       .  S
Co826       N846   2.075       .  S
Co826       N833   2.086       .  S
Co826      Cl868   2.473       .  S
C827        N865   1.348       .  A
C827        C880   1.464       .  S
N828        N835   1.319       .  A
N828        N858   1.324       .  A
N828       Co861   2.077       .  S
N829        N847   1.322       .  A
N829        N865   1.325       .  A
N830        C859   1.349       .  A
N830        N840   1.326       .  A
H831        C856   1.082       .  S
N832        N853   1.323       .  A
N833        N851   1.319       .  A
N833        N838   1.327       .  A
C834        N838   1.350       .  A
C834        C862   1.454       .  S
N835        C850   1.344       .  A
N835       Co857   2.091       .  S
C836        N864   1.335       .  A
C836        C839   1.452       .  S
C836        H870   1.082       .  S
C839        N860   1.351       .  A
N840        N846   1.321       .  A
N841        C867   1.340       .  A
N841        N843   1.322       .  A
N841       Co857   2.077       .  S
N842        C856   1.339       .  A
N843        N871   1.327       .  A
N843       Co861   2.106       .  S
H844        C867   1.082       .  S
H845        C862   1.082       .  S
N847       Co861   2.097       .  S
N848        N860   1.328       .  A
N848        N864   1.319       .  A
N848       Co857   2.089       .  S
C849        N853   1.348       .  A
C849        C863   1.461       .  S
C849        C876   1.466       .  S
C850        C869   1.462       .  S
C850        H854   1.082       .  S
N851        C862   1.337       .  A
N851       Co861   2.076       .  S
C855        N871   1.353       .  A
C855        C867   1.454       .  S
Co857      Cl868   2.473       .  S
N858        C869   1.346       .  A
Co861      Cl868   2.429       .  S
C872        N873   1.362       .  A
C872        N877   1.362       .  A
C872        C992   1.474       .  S
N873        C874   1.359       .  A
C874        N875   1.356       .  A
C874        C884   1.467       .  S
N875        C876   1.356       .  A
C876        N877   1.359       .  A
C878        N879   1.361       .  A
C878        N883   1.363       .  A
C878       C1059   1.476       .  S
N879        C880   1.359       .  A
C880        N881   1.353       .  A
N881        C882   1.353       .  A
C882        N883   1.361       .  A
C882        C904   1.466       .  S
C884        N902   1.353       .  A
C884        C921   1.452       .  S
N885        N902   1.329       .  A
N885        N907   1.319       .  A
N885      Co2114   2.095       .  S
C886        N911   1.344       .  A
C886        C924   1.461       .  S
C886        H931   1.082       .  S
H887        C928   1.082       .  S
C888        N912   1.337       .  A
C888        C892   1.454       .  S
C888        H917   1.082       .  S
Co889      N2099   2.073   1_455  S
Co889      N2089   2.097   1_455  S
Co889       N929   2.097       .  S
Co889       N905   2.083       .  S
Co889      Cl933   2.429       .  S
N890        C928   1.340       .  A
N890        N897   1.322       .  A
N890      Co2083   2.079       .  S
Co891      N2082   2.079   1_455  S
Co891      N1490   2.089   1_465  S
Co891       N911   2.087       .  S
Co891      Cl933   2.475       .  S
C892        N930   1.351       .  A
N893        N900   1.322       .  A
N893        N923   1.327       .  A
N893      Co2118   2.093       .  S
N894        N912   1.319       .  A
N894        N930   1.328       .  A
N894      Co1487   2.088       .  S
N895        C924   1.348       .  A
N895        N905   1.324       .  A
H896        C921   1.082       .  S
N897        N918   1.325       .  A
N897      Co2081   2.097       .  S
N898        N916   1.322       .  A
N898        N903   1.325       .  A
C899        N903   1.349       .  A
C899        C927   1.457       .  S
N900        C915   1.335       .  A
N900      Co1518   2.074       .  S
C901        N929   1.340       .  A
C901        C904   1.460       .  S
C901        H935   1.082       .  S
C904        N925   1.347       .  A
N905        N911   1.319       .  A
N906        C932   1.344       .  A
N906        N908   1.320       .  A
N907        C921   1.337       .  A
N907      Co2081   2.073       .  S
N908        N936   1.323       .  A
N908       Co926   2.081       .  S
H909        C932   1.082       .  S
H910        C927   1.082       .  S
N912      Co2118   2.078       .  S
N913        N925   1.326       .  A
N913        N929   1.322       .  A
N913       Co922   2.076       .  S
C914        N918   1.350       .  A
C914        C928   1.457       .  S
C915        C934   1.454       .  S
C915        H919   1.082       .  S
N916        C927   1.339       .  A
N916       Co926   2.090       .  S
C920        N936   1.347       .  A
C920        C932   1.460       .  S
Co922      N2077   2.095   1_455  S
Co922      N1496   2.074   1_465  S
Co922      Cl933   2.474       .  S
N923        C934   1.350       .  A
Co926      N2085   2.093   1_455  S
Co926      N2104   2.078   1_455  S
C937        C942   1.380       .  A
C937        C938   1.405       .  A
C937        O943   1.319       .  A
C938        H949   1.082       .  S
C938        C939   1.404       .  A
C939        C948   1.364       .  A
C939        C940   1.380       .  A
C940        O946   1.322       .  A
C941        H950   1.082       .  S
C944        C945   1.392   1_565  A
C945        H951   1.082       .  S
O946        C947   1.332       .  A
C947        C948   1.393       .  A
C948        H952   1.083       .  S
C953        C958   1.381       .  A
C953        C954   1.405       .  A
C953        O959   1.319       .  A
C954        H965   1.082       .  S
C954        C955   1.403       .  A
C955        C964   1.365       .  A
C955        C956   1.381       .  A
C956        C957   1.401       .  A
C956        O962   1.315       .  A
C957        H966   1.083       .  S
C957        C958   1.399       .  A
C958        C961   1.359       .  A
O959        C960   1.331       .  A
C960        C961   1.389       .  A
C961        H967   1.083       .  S
O962        C963   1.329       .  A
C963        C964   1.391       .  A
C964        H968   1.082       .  S
C969        C974   1.380       .  A
C969        C970   1.406       .  A
C969        O975   1.321       .  A
C970        H981   1.082       .  S
C970        C971   1.405       .  A
C971        C980   1.366       .  A
C971        C972   1.380       .  A
C972        C973   1.402       .  A
C972        O978   1.317       .  A
C973        H982   1.082       .  S
C973        C974   1.401       .  A
C974        C977   1.360       .  A
O975        C976   1.332       .  A
C976        C977   1.390       .  A
C977        H983   1.082       .  S
O978        C979   1.330       .  A
C979        C980   1.393       .  A
C980        H984   1.082       .  S
C985        C990   1.380       .  A
C985        C986   1.404       .  A
C985        O991   1.319       .  A
C986       H2189   1.082       .  S
C986        C987   1.403       .  A
C987       C2188   1.362       .  A
C987        C988   1.380       .  A
C988        C989   1.406       .  A
C988        O994   1.321       .  A
C989        H998   1.082       .  S
C989        C990   1.406       .  A
C990        C993   1.366       .  A
O991        C992   1.331       .  A
C992        C993   1.393       .  A
C993        H999   1.082       .  S
O994       C2187   1.332       .  A
C995        C996   1.391       .  A
C995       O2186   1.332   1_455  A
C996       H1000   1.082       .  S
C996       C2179   1.362   1_455  A
H997       C2178   1.082   1_455  S
C1001      C1006   1.380       .  A
C1001      C1002   1.405       .  A
C1001      O1007   1.320       .  A
C1002      H1013   1.082       .  S
C1002      C1003   1.404       .  A
C1003      C1012   1.365       .  A
C1003      C1004   1.380       .  A
C1004      C1005   1.403       .  A
C1004      O1010   1.318       .  A
C1005      H1014   1.082       .  S
C1005      C1006   1.402       .  A
C1006      C1009   1.361       .  A
O1007      C1008   1.331       .  A
C1008      C1009   1.390       .  A
C1009      H1015   1.082       .  S
O1010      C1011   1.331       .  A
C1011      C1012   1.392       .  A
C1012      H1016   1.082       .  S
C1017      C1022   1.380       .  A
C1017      C1018   1.404       .  A
C1017      O2215   1.320       .  A
C1018      H1029   1.082       .  S
C1018      C1019   1.403       .  A
C1019      C1028   1.364       .  A
C1019      C1020   1.380       .  A
C1020      C1021   1.405       .  A
C1020      O1026   1.320       .  A
C1021      H1030   1.082       .  S
C1021      C1022   1.404       .  A
C1022      C1025   1.363       .  A
O1023      C2209   1.320   1_455  A
O1023      C2216   1.330       .  A
C1024      C1954   1.478       .  S
C1024      C1025   1.392       .  A
C1024      O2215   1.330       .  A
C1025      H1031   1.083       .  S
O1026      C1027   1.332       .  A
C1027      C1028   1.391       .  A
C1028      H1032   1.082       .  S
C1033      C1038   1.381       .  A
C1033      O1039   1.317       .  A
C1034      H1045   1.082       .  S
C1034      C1035   1.401       .  A
C1035      C1044   1.362   1_545  A
C1036      C1037   1.401       .  A
C1036      O1042   1.314       .  A
C1037      H1046   1.082       .  S
C1037      C1038   1.399       .  A
C1038      C1041   1.359       .  A
O1039      C1040   1.330       .  A
C1040      C1041   1.389       .  A
C1041      H1047   1.083       .  S
C1043      C1044   1.390       .  A
C1044      H1048   1.082       .  S
C1049      C1054   1.381       .  A
C1049      C1050   1.405       .  A
C1049      O1055   1.321       .  A
C1050      H1061   1.082       .  S
C1050      C1051   1.405       .  A
C1051      C1060   1.364       .  A
C1051      C1052   1.380       .  A
C1052      C1053   1.404       .  A
C1052      O1058   1.320       .  A
C1053      H1062   1.082       .  S
C1053      C1054   1.404       .  A
C1054      C1057   1.362       .  A
O1055      C1056   1.331       .  A
C1056      C1057   1.391       .  A
C1057      H1063   1.082       .  S
O1058      C1059   1.332       .  A
C1059      C1060   1.393       .  A
C1060      H1064   1.082       .  S
C1065      C1070   1.380       .  A
C1065      C1066   1.403       .  A
C1065      O1071   1.319       .  A
C1066      H1077   1.082       .  S
C1066      C1067   1.402       .  A
C1067      C1076   1.360       .  A
C1067      C1068   1.381       .  A
C1068      C1069   1.405       .  A
C1068      O1074   1.320       .  A
C1069      H1078   1.082       .  S
C1069      C1070   1.404       .  A
C1070      C1073   1.363       .  A
O1071      C1072   1.331       .  A
C1072      C1073   1.393       .  A
C1073      H1079   1.082       .  S
O1074      C1075   1.331       .  A
C1075      C1076   1.390       .  A
C1076      H1080   1.082       .  S
C1081      C1086   1.381       .  A
C1081      C1082   1.402       .  A
C1081      O1087   1.319       .  A
C1082      H1093   1.082       .  S
C1082      C1083   1.402       .  A
C1083      C1092   1.360       .  A
C1083      C1084   1.381       .  A
C1084      C1085   1.405       .  A
C1084      O1090   1.322       .  A
C1085      H1094   1.082       .  S
C1085      C1086   1.405       .  A
C1086      C1089   1.363       .  A
O1087      C1088   1.330       .  A
C1088      C1089   1.393       .  A
C1089      H1095   1.083       .  S
O1090      C1091   1.331       .  A
C1091      C1092   1.390       .  A
C1092      H1096   1.082       .  S
C1097      C1102   1.380       .  A
C1097      C1098   1.407       .  A
C1098      C1099   1.407       .  A
C1099      C1108   1.366       .  A
C1099      C1100   1.380       .  A
C1100      C1101   1.402       .  A
C1100      O1106   1.318       .  A
C1101      H1110   1.082       .  S
C1101      C1102   1.401       .  A
C1102      C1105   1.360       .  A
O1103      C1104   1.333       .  A
C1105      H1111   1.082       .  S
O1106      C1107   1.330       .  A
C1107      C1108   1.395       .  A
C1108      H1112   1.083       .  S
C1113      C1118   1.381       .  A
C1113      C1114   1.403       .  A
C1113      O1119   1.318       .  A
C1114      H1125   1.082       .  S
C1114      C1115   1.401       .  A
C1115      C1124   1.362       .  A
C1115      C1116   1.381       .  A
C1116      C1117   1.402       .  A
C1116      O1122   1.317       .  A
C1117      H1126   1.082       .  S
C1117      C1118   1.401       .  A
C1118      C1121   1.361       .  A
O1119      C1120   1.330       .  A
C1120      C1121   1.391       .  A
C1121      H1127   1.083       .  S
O1122      C1123   1.329       .  A
C1123      C1124   1.388       .  A
C1124      H1128   1.082       .  S
C1129      C1134   1.381       .  A
C1129      C1130   1.401       .  A
C1129      O1135   1.315       .  A
C1130      H1141   1.082       .  S
C1130      C1131   1.400       .  A
C1131      C1140   1.360       .  A
C1131      C1132   1.380       .  A
C1132      C2325   1.405       .  A
C1132      O1138   1.319       .  A
C1133      H1142   1.082       .  S
C1133      C2324   1.405       .  A
C1133      C2326   1.404       .  A
C1134      C2325   1.404       .  A
C1134      C2329   1.365       .  A
O1135      C1136   1.329       .  A
C1136      C1952   1.477       .  S
C1136      C2329   1.392       .  A
C1137      H1143   1.082       .  S
C1137      C2326   1.365   1_455  A
C1137      C2328   1.392       .  A
O1138      C1139   1.331       .  A
C1139      C1140   1.390       .  A
C1140      H1144   1.083       .  S
C1145      C1150   1.381       .  A
C1145      C1146   1.404       .  A
C1145      O1151   1.323       .  A
C1146      H1157   1.082       .  S
C1146      C1147   1.404       .  A
C1147      C1156   1.360       .  A
C1147      C1148   1.381       .  A
C1148      C1149   1.402       .  A
C1148      O1154   1.320       .  A
C1149      H1158   1.082       .  S
C1149      C1150   1.403       .  A
C1150      C1153   1.358       .  A
O1151      C1152   1.331       .  A
C1152      C1153   1.392       .  A
C1153      H1159   1.083       .  S
O1154      C1155   1.331       .  A
C1155      C1156   1.392       .  A
C1156      H1160   1.082       .  S
C1161      C1166   1.380       .  A
C1161      C1162   1.403       .  A
C1161      O1167   1.318       .  A
C1162      H1173   1.082       .  S
C1162      C1163   1.402       .  A
C1163      C1172   1.360       .  A
C1163      C1164   1.380       .  A
C1164      C1165   1.408       .  A
C1164      O1170   1.323       .  A
C1165      H1174   1.082       .  S
C1165      C1166   1.407       .  A
C1166      C1169   1.367       .  A
O1167      C1168   1.330       .  A
C1168      C1169   1.394       .  A
C1169      H1175   1.082       .  S
O1170      C1171   1.333       .  A
C1171      C1172   1.391       .  A
C1172      H1176   1.082       .  S
C1177      C1182   1.381       .  A
C1177      C1178   1.401       .  A
C1177      O2375   1.314       .  A
C1178      H1189   1.082       .  S
C1178      C1179   1.399       .  A
C1179      C1188   1.359       .  A
C1179      C1180   1.381       .  A
C1180      C1181   1.403       .  A
C1180      O1186   1.317       .  A
C1181      H1190   1.082       .  S
C1181      C1182   1.402       .  A
C1182      C1185   1.363       .  A
O1183      C2369   1.314       .  A
O1183      C1184   1.329       .  A
C1184      C2377   1.389   1_455  A
C1185      H1191   1.082       .  S
C1185      C2376   1.389       .  A
O1186      C1187   1.330       .  A
C1187      C1188   1.389       .  A
C1188      H1192   1.083       .  S
C1193      N1194   1.355       .  A
C1193      N1198   1.358       .  A
C1193      C1783   1.464       .  S
N1194      C1195   1.355       .  A
C1195      N1196   1.356       .  A
C1195      C1324   1.458       .  S
N1196      C1197   1.356       .  A
C1197      N1198   1.358       .  A
C1197      C1217   1.461       .  S
C1199      N1200   1.361       .  A
C1199      N1204   1.362       .  A
C1199      C1764   1.474       .  S
N1200      C1201   1.359       .  A
C1201      N1202   1.356       .  A
C1201      C1294   1.465       .  S
N1202      C1203   1.355       .  A
C1203      N1204   1.359       .  A
C1203      C1247   1.467       .  S
C1205      N1206   1.359       .  A
C1205      N1210   1.363       .  A
C1205      C1748   1.473       .  S
N1206      C1207   1.355       .  A
C1207      N1208   1.356       .  A
C1207      C1334   1.465       .  S
N1208      C1209   1.359       .  A
C1209      N1210   1.363       .  A
C1209      C1267   1.469       .  S
C1211      N1212   1.356       .  A
C1211      N1216   1.356       .  A
C1211      C1735   1.468       .  S
N1212      C1213   1.359       .  A
C1213      N1214   1.360       .  A
C1213      C1257   1.466       .  S
N1214      C1215   1.359       .  A
C1215      N1216   1.358       .  A
C1215      C1344   1.465       .  S
C1217      C1254   1.457       .  S
N1218      N1235   1.323       .  A
N1218     Co1255   2.077       .  S
C1219      N1244   1.338       .  A
C1219      H1264   1.082       .  S
H1220      C1261   1.082       .  S
C1221      N1245   1.338       .  A
C1221      C1225   1.456       .  S
C1221      H1250   1.082       .  S
Co1222     N1240   2.091       .  S
Co1222     N1230   2.079       .  S
Co1222     N1858   2.073       .  S
Co1222     N1834   2.094       .  S
N1223      C1261   1.345       .  A
N1223     Co1224   2.091       .  S
Co1224     N1227   2.079       .  S
Co1224     N1840   2.078       .  S
Co1224     N1827   2.089       .  S
Co1224    Cl1266   2.472       .  S
C1225      N1263   1.348       .  A
C1225      C1272   1.462       .  S
N1226      N1233   1.319       .  A
N1226      N1256   1.323       .  A
N1226     Co1259   2.083       .  S
N1227      N1245   1.323       .  A
N1227      N1263   1.325       .  A
N1228      C1257   1.350       .  A
N1228      N1238   1.326       .  A
H1229      C1254   1.082       .  S
N1230      N1251   1.323       .  A
N1231      N1249   1.320       .  A
N1231      N1236   1.327       .  A
N1231     Co1820   2.089   1_545  S
C1232      N1236   1.351       .  A
C1232      C1260   1.454       .  S
C1232      C1290   1.464       .  S
N1233      C1248   1.346       .  A
N1233     Co1255   2.090       .  S
C1234      N1262   1.336       .  A
C1234      C1237   1.454       .  S
C1234      H1268   1.082       .  S
C1237      C1278   1.461       .  S
N1238     Co1818   2.094   1_545  S
N1239      C1265   1.340       .  A
N1239      N1241   1.321       .  A
N1239     Co1851   2.076   1_545  S
N1240      C1254   1.340       .  A
N1241      N1269   1.326       .  A
N1241     Co1855   2.097   1_545  S
H1242      C1265   1.082       .  S
H1243      C1260   1.082       .  S
N1244     Co1820   2.079   1_545  S
N1245     Co1259   2.089       .  S
N1246      N1258   1.326       .  A
N1246     Co1851   2.084   1_545  S
C1247      N1251   1.347       .  A
C1248      C1267   1.463       .  S
C1248      H1252   1.082       .  S
N1249      C1260   1.338       .  A
N1249     Co1855   2.075   1_545  S
C1253      N1269   1.351       .  A
C1253      C1265   1.456       .  S
C1253      C1284   1.467       .  S
Co1255     N1835   2.076       .  S
Co1255     N1842   2.084       .  S
Co1255    Cl1266   2.474       .  S
N1256      C1267   1.348       .  A
Co1259     N1837   2.096       .  S
Co1259     N1845   2.075       .  S
Co1259    Cl1266   2.428       .  S
N1262     Co1818   2.073   1_545  S
C1270      N1271   1.360       .  A
C1270      N1275   1.361       .  A
C1270      C1716   1.469       .  S
N1271      C1272   1.358       .  A
C1272      N1273   1.353       .  A
N1273      C1274   1.353       .  A
C1274      N1275   1.357       .  A
C1274      C1314   1.461       .  S
C1276      N1277   1.361       .  A
C1276      N1281   1.364       .  A
C1276      C1703   1.474       .  S
N1277      C1278   1.357       .  A
C1278      N1279   1.353       .  A
N1279      C1280   1.354       .  A
C1280      N1281   1.360       .  A
C1280      C1302   1.466       .  S
C1282      N1283   1.360       .  A
C1282      N1287   1.358       .  A
C1282      C1684   1.473       .  S
N1283      C1284   1.360       .  A
C1284      N1285   1.357       .  A
N1285      C1286   1.357       .  A
C1286      N1287   1.357       .  A
C1286      C1309   1.464       .  S
C1288      N1289   1.361       .  A
C1288      N1293   1.361       .  A
C1288      C1668   1.472       .  S
N1289      C1290   1.359       .  A
C1290      N1291   1.355       .  A
N1291      C1292   1.355       .  A
C1292      N1293   1.358       .  A
C1292      C1330   1.462       .  S
C1294      N1312   1.351       .  A
C1294      C1331   1.455       .  S
N1295      N1312   1.327       .  A
N1295      N1317   1.319       .  A
N1295     Co1332   2.087       .  S
C1296      N1321   1.343       .  A
C1296      C1334   1.461       .  S
C1296      H1341   1.082       .  S
H1297      C1338   1.082       .  S
C1298      N1322   1.336       .  A
C1298      C1302   1.453       .  S
C1298      H1327   1.082       .  S
Co1299     N1317   2.077       .  S
Co1299     N1307   2.087       .  S
Co1299     N1339   2.085       .  S
Co1299     N1315   2.079       .  S
Co1299    Cl1343   2.429       .  S
N1300      C1338   1.337       .  A
N1300      N1307   1.321       .  A
N1300     Co1301   2.073       .  S
Co1301     N1304   2.092       .  S
Co1301     N1321   2.090       .  S
Co1301     N1308   2.078       .  S
Co1301    Cl1343   2.471       .  S
C1302      N1340   1.352       .  A
N1303      N1310   1.321       .  A
N1303      N1333   1.327       .  A
N1303     Co1336   2.096       .  S
N1304      N1322   1.319       .  A
N1304      N1340   1.329       .  A
N1305      C1334   1.347       .  A
N1305      N1315   1.324       .  A
H1306      C1331   1.082       .  S
N1307      N1328   1.324       .  A
N1308      N1326   1.322       .  A
N1308      N1313   1.324       .  A
C1309      N1313   1.348       .  A
C1309      C1337   1.458       .  S
N1310      C1325   1.337       .  A
N1310     Co1332   2.074       .  S
C1311      N1339   1.337       .  A
C1311      C1314   1.455       .  S
C1311      H1345   1.082       .  S
C1314      N1335   1.349       .  A
N1315      N1321   1.319       .  A
N1316      C1342   1.344       .  A
N1316      N1318   1.319       .  A
N1316     Co1332   2.085       .  S
N1317      C1331   1.338       .  A
N1318      N1346   1.322       .  A
N1318     Co1336   2.076       .  S
H1319      C1342   1.082       .  S
H1320      C1337   1.082       .  S
N1322     Co1336   2.074       .  S
N1323      N1335   1.325       .  A
N1323      N1339   1.321       .  A
N1323     Co1332   2.080       .  S
C1324      N1328   1.348       .  A
C1324      C1338   1.454       .  S
C1325      C1344   1.454       .  S
C1325      H1329   1.082       .  S
N1326      C1337   1.341       .  A
N1326     Co1336   2.092       .  S
C1330      N1346   1.346       .  A
C1330      C1342   1.460       .  S
Co1332    Cl1343   2.472       .  S
N1333      C1344   1.351       .  A
Co1336    Cl1343   2.429       .  S
C1347      C1751   1.477       .  S
C1347      C1348   1.416       .  A
C1347      C1352   1.405       .  A
C1348      C1700   1.478       .  S
C1348      C1349   1.403       .  A
C1349      H1950   1.085       .  S
C1349      C1350   1.404       .  A
C1350      C1639   1.473       .  S
C1350      C1351   1.410       .  A
C1351      C1652   1.478       .  S
C1351      C1352   1.398       .  A
C1352      H1353   1.085       .  S
H1354      C1945   1.085   1_545  S
C1355      C1719   1.471       .  S
C1355      C1356   1.409       .  A
C1355      C1360   1.399       .  A
C1357      H1362   1.084   1_455  S
C1358      C1359   1.415       .  A
C1359      C1604   1.475       .  S
C1359      C1360   1.401   1_556  A
C1360      H1361   1.085       .  S
C1363      C1687   1.478       .  S
C1363      C1364   1.408       .  A
C1363      C1368   1.401       .  A
C1364      C1780   1.471       .  S
C1364      C1365   1.402       .  A
C1365      C1366   1.404       .  A
C1366      C1591   1.481       .  S
C1366      C1367   1.418       .  A
C1367      C1572   1.478       .  S
C1367      C1368   1.406       .  A
C1368      H1369   1.084       .  S
C1371      C2267   1.475       .  S
C1371      C1372   1.415       .  A
C1371      C1376   1.405       .  A
C1372      C1767   1.483       .  S
C1372      C1373   1.404       .  A
C1373      H1378   1.084       .  S
C1373      C1374   1.405       .  A
C1374      C1559   1.474   1_554  S
C1374      C1375   1.411       .  A
C1375      C1540   1.483   1_554  S
C1375      C1376   1.403       .  A
C1376      H1973   1.084       .  S
H1377      C1972   1.085   1_545  S
C1379      N1380   1.359       .  A
C1379      N1384   1.358       .  A
C1379      C1556   1.468       .  S
N1380      C1381   1.358       .  A
C1381      N1382   1.357       .  A
C1381      C1510   1.466       .  S
N1382      C1383   1.358       .  A
C1383      N1384   1.358       .  A
C1383      C1415   1.464       .  S
C1385      N1386   1.364       .  A
C1385      N1390   1.362       .  A
C1385      C1623   1.474       .  S
N1386      C1387   1.360       .  A
C1387      N1388   1.353       .  A
C1387      C1488   1.466       .  S
N1388      C1389   1.354       .  A
C1389      N1390   1.359       .  A
C1389      C1435   1.463       .  S
C1391      N1392   1.360       .  A
C1391      N1396   1.361       .  A
C1391      C1543   1.476       .  S
N1392      C1393   1.359       .  A
C1393      N1394   1.356       .  A
C1393      C1495   1.464       .  S
N1394      C1395   1.355       .  A
C1395      N1396   1.362       .  A
C1395      C1451   1.469       .  S
C1397      N1398   1.359       .  A
C1397      N1402   1.361       .  A
C1397      C1607   1.471       .  S
N1398      C1399   1.357       .  A
C1399      N1400   1.357       .  A
C1399      C1465   1.465       .  S
N1400      C1401   1.358       .  A
C1401      N1402   1.360       .  A
C1401      C1520   1.467       .  S
C1403      N1404   1.362       .  A
C1403      N1408   1.361       .  A
C1403      C1575   1.471       .  S
N1404      C1405   1.360       .  A
C1405      N1406   1.355       .  A
C1405      C1430   1.464       .  S
N1406      C1407   1.354       .  A
C1407      N1408   1.358       .  A
C1407      C1516   1.464       .  S
C1409      N1410   1.355       .  A
C1409      N1414   1.352       .  A
C1409      C1636   1.462       .  S
N1410      C1411   1.358       .  A
C1411      N1412   1.361       .  A
C1411      C1455   1.464       .  S
N1412      C1413   1.360       .  A
C1413      N1414   1.355       .  A
C1413      C1530   1.462       .  S
C1415      N1433   1.349       .  A
C1415      C1452   1.456       .  S
N1416      N1433   1.325       .  A
N1416      N1438   1.322       .  A
N1416     Co1453   2.083       .  S
C1417      N1442   1.338       .  A
C1417      C1455   1.456       .  S
C1417      H1462   1.082       .  S
H1418      C1459   1.082       .  S
C1419      N1443   1.339       .  A
C1419      C1423   1.458       .  S
C1419      H1448   1.081       .  S
Co1420     N1438   2.088       .  S
Co1420     N1428   2.080       .  S
Co1420     N1460   2.072       .  S
Co1420     N1436   2.093       .  S
Co1420    Cl1464   2.429       .  S
N1421      C1459   1.345       .  A
N1421      N1428   1.319       .  A
N1421     Co1422   2.087       .  S
Co1422     N1425   2.077       .  S
Co1422     N1442   2.075       .  S
Co1422     N1429   2.087       .  S
Co1422    Cl1464   2.474       .  S
C1423      N1461   1.348       .  A
C1423      C1476   1.464       .  S
N1424      N1431   1.319       .  A
N1424      N1454   1.323       .  A
N1424     Co1457   2.076       .  S
N1425      N1443   1.322       .  A
N1425      N1461   1.325       .  A
N1426      C1455   1.350       .  A
N1426      N1436   1.326       .  A
H1427      C1452   1.082       .  S
N1428      N1449   1.323       .  A
N1429      N1447   1.319       .  A
N1429      N1434   1.327       .  A
C1430      N1434   1.350       .  A
C1430      C1458   1.454       .  S
N1431      C1446   1.344       .  A
N1431     Co1453   2.091       .  S
C1432      N1460   1.336       .  A
C1432      C1435   1.452       .  S
C1432      H1466   1.082       .  S
C1435      N1456   1.352       .  A
N1436      N1442   1.321       .  A
N1437      C1463   1.340       .  A
N1437      N1439   1.322       .  A
N1437     Co1453   2.078       .  S
N1438      C1452   1.340       .  A
N1439      N1467   1.327       .  A
N1439     Co1457   2.105       .  S
H1440      C1463   1.081       .  S
H1441      C1458   1.082       .  S
N1443     Co1457   2.097       .  S
N1444      N1456   1.328       .  A
N1444      N1460   1.319       .  A
N1444     Co1453   2.090       .  S
C1445      N1449   1.348       .  A
C1445      C1459   1.461       .  S
C1445      C1472   1.466       .  S
C1446      C1465   1.462       .  S
C1446      H1450   1.082       .  S
N1447      C1458   1.337       .  A
N1447     Co1457   2.076       .  S
C1451      N1467   1.353       .  A
C1451      C1463   1.454       .  S
Co1453    Cl1464   2.473       .  S
N1454      C1465   1.346       .  A
Co1457    Cl1464   2.429       .  S
C1468      N1469   1.362       .  A
C1468      N1473   1.361       .  A
C1468      C1588   1.474       .  S
N1469      C1470   1.359       .  A
C1470      N1471   1.357       .  A
C1470      C1480   1.467       .  S
N1471      C1472   1.356       .  A
C1472      N1473   1.359       .  A
C1474      N1475   1.361       .  A
C1474      N1479   1.363       .  A
C1474      C1655   1.475       .  S
N1475      C1476   1.359       .  A
C1476      N1477   1.353       .  A
N1477      C1478   1.353       .  A
C1478      N1479   1.361       .  A
C1478      C1500   1.466       .  S
C1480      N1498   1.353       .  A
C1480      C1517   1.452       .  S
N1481      N1498   1.329       .  A
N1481      N1503   1.319       .  A
C1482      N1507   1.344       .  A
C1482      C1520   1.461       .  S
C1482      H1527   1.082       .  S
H1483      C1524   1.082       .  S
C1484      N1508   1.337       .  A
C1484      C1488   1.455       .  S
C1484      H1513   1.082       .  S
Co1485     N1525   2.097       .  S
Co1485     N1501   2.082       .  S
Co1485    Cl1529   2.428       .  S
N1486      C1524   1.340       .  A
N1486      N1493   1.322       .  A
Co1487     N1507   2.087       .  S
Co1487     N2090   2.080       .  S
Co1487    Cl1529   2.475       .  S
C1488      N1526   1.351       .  A
N1489      N1496   1.322       .  A
N1489      N1519   1.327       .  A
N1490      N1508   1.319       .  A
N1490      N1526   1.328       .  A
N1491      C1520   1.348       .  A
N1491      N1501   1.324       .  A
H1492      C1517   1.082       .  S
N1493      N1514   1.325       .  A
N1494      N1512   1.322       .  A
N1494      N1499   1.325       .  A
N1494     Co2083   2.080   1_545  S
C1495      N1499   1.349       .  A
C1495      C1523   1.457       .  S
N1496      C1511   1.335       .  A
C1497      N1525   1.340       .  A
C1497      C1500   1.460       .  S
C1497      H1531   1.082       .  S
C1500      N1521   1.347       .  A
N1501      N1507   1.319       .  A
N1502      C1528   1.344       .  A
N1502      N1504   1.319       .  A
N1502     Co2114   2.087   1_545  S
N1503      C1517   1.337       .  A
N1504      N1532   1.323       .  A
N1504     Co1522   2.081       .  S
H1505      C1528   1.082       .  S
H1506      C1523   1.082       .  S
N1509      N1521   1.325       .  A
N1509      N1525   1.322       .  A
N1509     Co1518   2.076       .  S
C1510      N1514   1.350       .  A
C1510      C1524   1.457       .  S
C1511      C1530   1.454       .  S
C1511      H1515   1.082   1_545  S
N1512      C1523   1.339       .  A
N1512     Co1522   2.089       .  S
C1516      N1532   1.347       .  A
C1516      C1528   1.460       .  S
Co1518     N2098   2.086       .  S
Co1518    Cl1529   2.474       .  S
N1519      C1530   1.350       .  A
Co1522    Cl2125   2.430   1_545  S
Cl1529    Co2118   2.430       .  S
C1533      C1538   1.380   1_565  A
C1533      C1534   1.405       .  A
C1533      O1539   1.319       .  A
C1534      H1545   1.082       .  S
C1534      C1535   1.404   1_565  A
C1535      C1544   1.363       .  A
C1535      C1536   1.380       .  A
C1536      C2133   1.406       .  A
C1536      O1542   1.322       .  A
C1537      H1546   1.082       .  S
C1537      C2132   1.407       .  A
C1537      C2134   1.406       .  A
C1538      C2133   1.406       .  A
C1538      C2137   1.366       .  A
O1539      C2136   1.332       .  A
C1540      C1541   1.392       .  A
C1540      O2135   1.332       .  A
C1541      H1547   1.082       .  S
C1541      C2134   1.366       .  A
O1542      C1543   1.332       .  A
C1543      C1544   1.393       .  A
C1544      H1548   1.083   1_545  S
C1549      C1554   1.380       .  A
C1549      C1550   1.405       .  A
C1549      O1555   1.319       .  A
C1550      H1561   1.082       .  S
C1550      C1551   1.404       .  A
C1551      C1560   1.365       .  A
C1551      C1552   1.381       .  A
C1552      C1553   1.401       .  A
C1552      O1558   1.315       .  A
C1553      H1562   1.082       .  S
C1553      C1554   1.400       .  A
C1554      C1557   1.360       .  A
O1555      C1556   1.331       .  A
C1556      C1557   1.390       .  A
C1557      H1563   1.083       .  S
O1558      C1559   1.329       .  A
C1559      C1560   1.391       .  A
C1560      H1564   1.082       .  S
C1565      C1570   1.380       .  A
C1565      C1566   1.406       .  A
C1565      O1571   1.321       .  A
C1566      H1577   1.082       .  S
C1566      C1567   1.405       .  A
C1567      C1576   1.366       .  A
C1567      C1568   1.380       .  A
C1568      C1569   1.402       .  A
C1568      O1574   1.317       .  A
C1569      H1578   1.082       .  S
C1569      C1570   1.401       .  A
C1570      C1573   1.360       .  A
O1571      C1572   1.332       .  A
C1572      C1573   1.390       .  A
C1573      H1579   1.082       .  S
O1574      C1575   1.330       .  A
C1575      C1576   1.393       .  A
C1576      H1580   1.082       .  S
C1581      C1586   1.380       .  A
C1581      C1582   1.404       .  A
C1581      O1587   1.319       .  A
C1582      C1583   1.403       .  A
C1583      C1584   1.380       .  A
C1584      C1585   1.406       .  A
C1584      O1590   1.321       .  A
C1585      H1594   1.082       .  S
C1585      C1586   1.406       .  A
C1586      C1589   1.365       .  A
O1587      C1588   1.331       .  A
C1588      C1589   1.393       .  A
C1589      H1595   1.082       .  S
C1591      C1592   1.391       .  A
C1592      H1596   1.082       .  S
C1597      C1602   1.380       .  A
C1597      C1598   1.405       .  A
C1597      O1603   1.320       .  A
C1598      H1609   1.082       .  S
C1598      C1599   1.404       .  A
C1599      C1608   1.364       .  A
C1599      C1600   1.380       .  A
C1600      C1601   1.403       .  A
C1600      O1606   1.318       .  A
C1601      H1610   1.082       .  S
C1601      C1602   1.402       .  A
C1602      C1605   1.361       .  A
O1603      C1604   1.331       .  A
C1604      C1605   1.390       .  A
C1605      H1611   1.082       .  S
O1606      C1607   1.331       .  A
C1607      C1608   1.392       .  A
C1608      H1612   1.082       .  S
C1613      C1618   1.380       .  A
C1613      C1614   1.404       .  A
C1614      H1625   1.082       .  S
C1614      C1615   1.403       .  A
C1615      C1624   1.364       .  A
C1615      C1616   1.380       .  A
C1616      C1617   1.406       .  A
C1616      O1622   1.320       .  A
C1617      H1626   1.082       .  S
C1617      C1618   1.404       .  A
C1618      C1621   1.363       .  A
C1620      C1621   1.392   1_455  A
C1621      H1627   1.083       .  S
O1622      C1623   1.332       .  A
C1623      C1624   1.391       .  A
C1624      H1628   1.082       .  S
C1629      C1634   1.381       .  A
C1629      C2226   1.403       .  A
C1629      O1635   1.317       .  A
C1630      H1641   1.082       .  S
C1630      C2225   1.403       .  A
C1630      C1631   1.401       .  A
C1631      C1640   1.362       .  A
C1631      C2228   1.381       .  A
C1632      C2227   1.381       .  A
C1632      C1633   1.401       .  A
C1632      O1638   1.315       .  A
C1633      H1642   1.082       .  S
C1633      C1634   1.399       .  A
C1634      C1637   1.360       .  A
O1635      C1636   1.330       .  A
C1636      C1637   1.389       .  A
C1637      H1643   1.083       .  S
O1638      C2235   1.330   1_545  A
C1639      C1640   1.390       .  A
C1639      O2234   1.330       .  A
C1640      H1644   1.082       .  S
C1645      C1650   1.381       .  A
C1645      C1646   1.405       .  A
C1645      O1651   1.321       .  A
C1646      H1657   1.082       .  S
C1646      C1647   1.405       .  A
C1647      C1656   1.364       .  A
C1647      C1648   1.380       .  A
C1648      C1649   1.404       .  A
C1648      O1654   1.320       .  A
C1649      H1658   1.082       .  S
C1649      C1650   1.403       .  A
C1650      C1653   1.362       .  A
O1651      C1652   1.331       .  A
C1652      C1653   1.391       .  A
C1653      H1659   1.082       .  S
O1654      C1655   1.332       .  A
C1655      C1656   1.393       .  A
C1656      H1660   1.082       .  S
C1661      C1666   1.380       .  A
C1661      C1662   1.403   1_545  A
C1661      O1667   1.319       .  A
C1662      H1673   1.082       .  S
C1662      C1663   1.402   1_565  A
C1663      C1672   1.361   1_545  A
C1663      C1664   1.381       .  A
C1664      C1665   1.404       .  A
C1664      O1670   1.320       .  A
C1665      H1674   1.086       .  S
C1665      C1666   1.404       .  A
C1666      C1669   1.363       .  A
O1667      C1668   1.331       .  A
C1668      C1669   1.393       .  A
C1669      H1675   1.081       .  S
O1670      C1671   1.331   1_545  A
C1671      C1967   1.475       .  S
C1671      C1672   1.390       .  A
C1672      H1676   1.080       .  S
C1677      C1682   1.380       .  A
C1677      C1678   1.403       .  A
C1677      O1683   1.319       .  A
C1678      H1689   1.082       .  S
C1678      C1679   1.402       .  A
C1679      C1688   1.360       .  A
C1679      C1680   1.381       .  A
C1680      C1681   1.405       .  A
C1680      O1686   1.322       .  A
C1681      H1690   1.082       .  S
C1681      C1682   1.405       .  A
C1682      C1685   1.363       .  A
O1683      C1684   1.330       .  A
C1684      C1685   1.393       .  A
C1685      H1691   1.083       .  S
O1686      C1687   1.331       .  A
C1687      C1688   1.390       .  A
C1688      H1692   1.082       .  S
C1693      C1698   1.380       .  A
C1693      C1694   1.407       .  A
C1693      O2295   1.322   1_545  A
C1694      H2301   1.083   1_545  S
C1694      C1695   1.407       .  A
C1695      C1704   1.365       .  A
C1695      C1696   1.380       .  A
C1696      C1697   1.402       .  A
C1696      O1702   1.319       .  A
C1697      H1706   1.082       .  S
C1697      C1698   1.401       .  A
C1698      C1701   1.360       .  A
O1699      C2289   1.322       .  A
O1699      C1700   1.333       .  A
C1700      C2297   1.389       .  A
C1701      H1707   1.082       .  S
C1701      C2296   1.389   1_545  A
O1702      C1703   1.330       .  A
C1703      C1704   1.395       .  A
C1704      H1708   1.083       .  S
H1705      C2290   1.083       .  S
C1709      C1714   1.381       .  A
C1709      C1710   1.403       .  A
C1709      O1715   1.318       .  A
C1710      H1721   1.082       .  S
C1710      C1711   1.402       .  A
C1711      C1720   1.362       .  A
C1711      C1712   1.381       .  A
C1712      C1713   1.402       .  A
C1712      O1718   1.317       .  A
C1713      H1722   1.082       .  S
C1713      C1714   1.401       .  A
C1714      C1717   1.361       .  A
O1715      C1716   1.330       .  A
C1716      C1717   1.391       .  A
C1717      H1723   1.083       .  S
O1718      C1719   1.329       .  A
C1719      C1720   1.388       .  A
C1720      H1724   1.082       .  S
C1725      C1730   1.381       .  A
C1725      C1726   1.401       .  A
C1725      O1731   1.315       .  A
C1726      H1737   1.082       .  S
C1726      C1727   1.400       .  A
C1727      C1736   1.360       .  A
C1727      C1728   1.380       .  A
C1728      O1734   1.319       .  A
C1729      H1738   1.082       .  S
O1731      C1732   1.329   1_655  A
C1733      H1739   1.082       .  S
O1734      C1735   1.331       .  A
C1735      C1736   1.390       .  A
C1736      H1740   1.083       .  S
C1741      C1746   1.381       .  A
C1741      C1742   1.404       .  A
C1741      O1747   1.323       .  A
C1742      H1753   1.082       .  S
C1742      C1743   1.405       .  A
C1743      C1752   1.361       .  A
C1743      C1744   1.381       .  A
C1744      C1745   1.402       .  A
C1744      O1750   1.320       .  A
C1745      H1754   1.082       .  S
C1745      C1746   1.403       .  A
C1746      C1749   1.358       .  A
O1747      C1748   1.332       .  A
C1748      C1749   1.392       .  A
C1749      H1755   1.083       .  S
O1750      C1751   1.331       .  A
C1751      C1752   1.392       .  A
C1752      H1756   1.082       .  S
C1757      C1762   1.380       .  A
C1757      C1758   1.403       .  A
C1757      O1763   1.318       .  A
C1758      H1769   1.082       .  S
C1758      C1759   1.402       .  A
C1759      C1768   1.360       .  A
C1759      C1760   1.380       .  A
C1760      C1761   1.408       .  A
C1760      O1766   1.323       .  A
C1761      H1770   1.082       .  S
C1761      C1762   1.407       .  A
C1762      C1765   1.367       .  A
O1763      C1764   1.331       .  A
C1764      C1765   1.394       .  A
C1765      H1771   1.082       .  S
O1766      C1767   1.333       .  A
C1767      C1768   1.391       .  A
C1768      H1772   1.082       .  S
C1773      C1778   1.381   1_455  A
C1773      C1774   1.401       .  A
C1774      H1785   1.082       .  S
C1774      C1775   1.399   1_455  A
C1775      C1784   1.360       .  A
C1775      C1776   1.381       .  A
C1776      C1777   1.403       .  A
C1776      O1782   1.317       .  A
C1777      H1786   1.082       .  S
C1777      C1778   1.402       .  A
C1778      C1781   1.363       .  A
O1779      C1780   1.329       .  A
C1781      H1787   1.082       .  S
O1782      C1783   1.330       .  A
C1783      C1784   1.389       .  A
C1784      H1788   1.083   1_655  S
C1789      N1790   1.355       .  A
C1789      N1794   1.358       .  A
C1789      C2379   1.463       .  S
N1790      C1791   1.355       .  A
C1791      N1792   1.356       .  A
C1791      C1920   1.457       .  S
N1792      C1793   1.356       .  A
C1793      N1794   1.358       .  A
C1793      C1813   1.461       .  S
C1795      N1796   1.362       .  A
C1795      N1800   1.362       .  A
C1795      C2360   1.474       .  S
N1796      C1797   1.360       .  A
C1797      N1798   1.356       .  A
C1797      C1890   1.465       .  S
N1798      C1799   1.355       .  A
C1799      N1800   1.359       .  A
C1799      C1843   1.467       .  S
C1801      N1802   1.358       .  A
C1801      N1806   1.363       .  A
C1801      C2344   1.473       .  S
N1802      C1803   1.354       .  A
C1803      N1804   1.356       .  A
C1803      C1930   1.464       .  S
N1804      C1805   1.359       .  A
C1805      N1806   1.363       .  A
C1805      C1863   1.469       .  S
C1807      N1808   1.355       .  A
C1807      N1812   1.356       .  A
C1807      C2331   1.467       .  S
N1808      C1809   1.358       .  A
C1809      N1810   1.360       .  A
C1809      C1853   1.465       .  S
N1810      C1811   1.359       .  A
C1811      N1812   1.357       .  A
C1811      C1940   1.465       .  S
C1813      C1850   1.457       .  S
N1814      N1831   1.323       .  A
N1814     Co1851   2.077       .  S
C1815      N1840   1.338       .  A
C1815      H1860   1.082       .  S
H1816      C1857   1.082       .  S
C1817      N1841   1.338       .  A
C1817      C1821   1.456       .  S
C1817      H1846   1.082       .  S
Co1818     N1836   2.090       .  S
Co1818     N1826   2.079       .  S
N1819      C1857   1.345       .  A
N1819     Co1820   2.091       .  S
Co1820     N1823   2.079       .  S
Co1820    Cl1862   2.472       .  S
C1821      N1859   1.348       .  A
C1821      C1868   1.462       .  S
N1822      N1829   1.319       .  A
N1822      N1852   1.323       .  A
N1822     Co1855   2.083       .  S
N1823      N1841   1.323       .  A
N1823      N1859   1.325       .  A
N1824      C1853   1.350       .  A
N1824      N1834   1.326       .  A
H1825      C1850   1.082       .  S
N1826      N1847   1.323       .  A
N1827      N1845   1.320       .  A
N1827      N1832   1.327       .  A
C1828      N1832   1.351       .  A
C1828      C1856   1.454       .  S
C1828      C1886   1.464       .  S
N1829      C1844   1.346       .  A
N1829     Co1851   2.090       .  S
C1830      N1858   1.336       .  A
C1830      C1833   1.454       .  S
C1830      H1864   1.082       .  S
C1833      C1874   1.460       .  S
N1835      C1861   1.340       .  A
N1835      N1837   1.321       .  A
N1836      C1850   1.340       .  A
N1837      N1865   1.325       .  A
H1838      C1861   1.082       .  S
H1839      C1856   1.082       .  S
N1841     Co1855   2.090       .  S
N1842      N1854   1.326       .  A
C1843      N1847   1.347       .  A
C1844      C1863   1.463       .  S
C1844      H1848   1.082       .  S
N1845      C1856   1.338       .  A
C1849      N1865   1.351       .  A
C1849      C1861   1.456       .  S
C1849      C1880   1.467       .  S
Co1851    Cl1862   2.474       .  S
N1852      C1863   1.347       .  A
Co1855    Cl1862   2.428       .  S
C1866      N1867   1.360       .  A
C1866      N1871   1.360       .  A
C1866      C2312   1.468       .  S
N1867      C1868   1.358       .  A
C1868      N1869   1.353       .  A
N1869      C1870   1.353       .  A
C1870      N1871   1.357       .  A
C1870      C1910   1.461       .  S
C1872      N1873   1.361       .  A
C1872      N1877   1.364       .  A
C1872      C2299   1.474       .  S
N1873      C1874   1.357       .  A
C1874      N1875   1.353       .  A
N1875      C1876   1.354       .  A
C1876      N1877   1.360       .  A
C1876      C1898   1.466       .  S
C1878      N1879   1.359       .  A
C1878      N1883   1.358       .  A
C1878      C2280   1.472       .  S
N1879      C1880   1.360       .  A
C1880      N1881   1.357       .  A
N1881      C1882   1.357       .  A
C1882      N1883   1.357       .  A
C1882      C1905   1.463       .  S
C1884      N1885   1.361       .  A
C1884      N1889   1.361       .  A
C1884      C2264   1.472       .  S
N1885      C1886   1.359       .  A
C1886      N1887   1.355       .  A
N1887      C1888   1.355       .  A
C1888      N1889   1.358       .  A
C1888      C1926   1.462       .  S
C1890      N1908   1.351       .  A
C1890      C1927   1.455       .  S
N1891      N1908   1.327       .  A
N1891      N1913   1.319       .  A
N1891     Co1928   2.087       .  S
C1892      N1917   1.343       .  A
C1892      C1930   1.461       .  S
C1892      H1937   1.082       .  S
H1893      C1934   1.082       .  S
C1894      N1918   1.336       .  A
C1894      C1898   1.453       .  S
C1894      H1923   1.082       .  S
Co1895     N1913   2.077       .  S
Co1895     N1903   2.086       .  S
Co1895     N1935   2.084       .  S
Co1895     N1911   2.078       .  S
Co1895    Cl1939   2.428       .  S
N1896      C1934   1.337       .  A
N1896      N1903   1.321       .  A
N1896     Co1897   2.073       .  S
Co1897     N1900   2.092       .  S
Co1897     N1917   2.090       .  S
Co1897     N1904   2.078       .  S
Co1897    Cl1939   2.471       .  S
C1898      N1936   1.352       .  A
N1899      N1906   1.321       .  A
N1899      N1929   1.327       .  A
N1899     Co1932   2.096       .  S
N1900      N1918   1.319       .  A
N1900      N1936   1.329       .  A
N1901      C1930   1.347       .  A
N1901      N1911   1.324       .  A
H1902      C1927   1.082       .  S
N1903      N1924   1.324       .  A
N1904      N1922   1.322       .  A
N1904      N1909   1.324       .  A
C1905      N1909   1.348       .  A
C1905      C1933   1.458       .  S
N1906      C1921   1.337       .  A
N1906     Co1928   2.073       .  S
C1907      N1935   1.337       .  A
C1907      C1910   1.455       .  S
C1907      H1941   1.082       .  S
C1910      N1931   1.349       .  A
N1911      N1917   1.319       .  A
N1912      C1938   1.344       .  A
N1912      N1914   1.319       .  A
N1912     Co1928   2.085       .  S
N1913      C1927   1.338       .  A
N1914      N1942   1.322       .  A
N1914     Co1932   2.076       .  S
H1915      C1938   1.082       .  S
H1916      C1933   1.082       .  S
N1918     Co1932   2.074       .  S
N1919      N1931   1.325       .  A
N1919      N1935   1.321       .  A
N1919     Co1928   2.080       .  S
C1920      N1924   1.348       .  A
C1920      C1934   1.454       .  S
C1921      C1940   1.454       .  S
C1921      H1925   1.082       .  S
N1922      C1933   1.341       .  A
N1922     Co1932   2.092       .  S
C1926      N1942   1.346       .  A
C1926      C1938   1.460       .  S
Co1928    Cl1939   2.472       .  S
N1929      C1940   1.351       .  A
Co1932    Cl1939   2.429       .  S
C1943      C2347   1.477       .  S
C1943      C1944   1.416       .  A
C1943      C1948   1.406       .  A
C1944      C2296   1.479       .  S
C1944      C1945   1.404       .  A
C1945      C1946   1.404       .  A
C1946      C2235   1.473       .  S
C1946      C1947   1.410       .  A
C1947      C2248   1.478       .  S
C1947      C1948   1.398       .  A
C1948      H1949   1.085       .  S
C1951      C2315   1.470       .  S
C1951      C1952   1.409       .  A
C1951      C1956   1.399       .  A
C1953      H1958   1.084   1_455  S
C1954      C1955   1.415       .  A
C1955      C2200   1.475       .  S
C1955      C1956   1.401   1_556  A
C1956      H1957   1.085       .  S
C1959      C2283   1.478       .  S
C1959      C1960   1.408       .  A
C1959      C1964   1.401       .  A
C1960      C2376   1.471       .  S
C1960      C1961   1.402       .  A
C1961      C1962   1.403       .  A
C1962      C2187   1.481       .  S
C1962      C1963   1.418       .  A
C1963      C2168   1.477       .  S
C1963      C1964   1.406       .  A
C1964      H1965   1.084       .  S
C1967      C1968   1.415       .  A
C1967      C1972   1.405       .  A
C1968      C2363   1.483       .  S
C1968      C1969   1.404       .  A
C1969      H1974   1.084       .  S
C1969      C1970   1.404       .  A
C1970      C2155   1.474   1_554  S
C1970      C1971   1.411       .  A
C1971      C2136   1.483   1_554  S
C1971      C1972   1.403       .  A
C1975      N1976   1.359       .  A
C1975      N1980   1.357       .  A
C1975      C2152   1.467       .  S
N1976      C1977   1.357       .  A
C1977      N1978   1.357       .  A
C1977      C2106   1.466       .  S
N1978      C1979   1.358       .  A
C1979      N1980   1.358       .  A
C1979      C2011   1.464       .  S
C1981      N1982   1.363       .  A
C1981      N1986   1.362       .  A
C1981      C2219   1.474       .  S
N1982      C1983   1.360       .  A
C1983      N1984   1.353       .  A
C1983      C2084   1.465       .  S
N1984      C1985   1.353       .  A
C1985      N1986   1.359       .  A
C1985      C2031   1.463       .  S
C1987      N1988   1.360       .  A
C1987      N1992   1.361       .  A
C1987      C2139   1.477       .  S
N1988      C1989   1.359       .  A
C1989      N1990   1.356       .  A
C1989      C2091   1.464       .  S
N1990      C1991   1.355       .  A
C1991      N1992   1.362       .  A
C1991      C2047   1.469       .  S
C1993      N1994   1.359       .  A
C1993      N1998   1.361       .  A
C1993      C2203   1.472       .  S
N1994      C1995   1.357       .  A
C1995      N1996   1.357       .  A
C1995      C2061   1.465       .  S
N1996      C1997   1.358       .  A
C1997      N1998   1.360       .  A
C1997      C2116   1.467       .  S
C1999      N2000   1.362       .  A
C1999      N2004   1.361       .  A
C1999      C2171   1.472       .  S
N2000      C2001   1.360       .  A
C2001      N2002   1.355       .  A
C2001      C2026   1.463       .  S
N2002      C2003   1.354       .  A
C2003      N2004   1.358       .  A
C2003      C2112   1.464       .  S
C2005      N2006   1.355       .  A
C2005      N2010   1.352       .  A
C2005      C2232   1.462       .  S
N2006      C2007   1.357       .  A
C2007      N2008   1.361       .  A
C2007      C2051   1.463       .  S
N2008      C2009   1.359       .  A
C2009      N2010   1.356       .  A
C2009      C2126   1.462       .  S
C2011      N2029   1.349       .  A
C2011      C2048   1.456       .  S
N2012      N2029   1.325       .  A
N2012      N2034   1.322       .  A
N2012     Co2049   2.083       .  S
C2013      N2038   1.338       .  A
C2013      C2051   1.456       .  S
C2013      H2058   1.082       .  S
H2014      C2055   1.082       .  S
C2015      N2039   1.339       .  A
C2015      C2019   1.459       .  S
C2015      H2044   1.081       .  S
Co2016     N2034   2.087       .  S
Co2016     N2024   2.080       .  S
Co2016     N2056   2.072       .  S
Co2016     N2032   2.092       .  S
Co2016    Cl2060   2.428       .  S
N2017      C2055   1.344       .  A
N2017      N2024   1.318       .  A
N2017     Co2018   2.087       .  S
Co2018     N2021   2.076       .  S
Co2018     N2038   2.075       .  S
Co2018     N2025   2.086       .  S
Co2018    Cl2060   2.473       .  S
C2019      N2057   1.348       .  A
C2019      C2072   1.464       .  S
N2020      N2027   1.319       .  A
N2020      N2050   1.324       .  A
N2020     Co2053   2.077       .  S
N2021      N2039   1.322       .  A
N2021      N2057   1.325       .  A
N2022      C2051   1.349       .  A
N2022      N2032   1.326       .  A
H2023      C2048   1.082       .  S
N2024      N2045   1.323       .  A
N2025      N2043   1.319       .  A
N2025      N2030   1.327       .  A
C2026      N2030   1.350       .  A
C2026      C2054   1.454       .  S
N2027      C2042   1.344       .  A
N2027     Co2049   2.091       .  S
C2028      N2056   1.335       .  A
C2028      C2031   1.452       .  S
C2028      H2062   1.082       .  S
C2031      N2052   1.351       .  A
N2032      N2038   1.321       .  A
N2033      C2059   1.340       .  A
N2033      N2035   1.322       .  A
N2033     Co2049   2.077       .  S
N2034      C2048   1.339       .  A
N2035      N2063   1.327       .  A
N2035     Co2053   2.106       .  S
H2036      C2059   1.082       .  S
H2037      C2054   1.082       .  S
N2039     Co2053   2.097       .  S
N2040      N2052   1.328       .  A
N2040      N2056   1.319       .  A
N2040     Co2049   2.089       .  S
C2041      N2045   1.348       .  A
C2041      C2055   1.461       .  S
C2041      C2068   1.466       .  S
C2042      C2061   1.462       .  S
C2042      H2046   1.082       .  S
N2043      C2054   1.337       .  A
N2043     Co2053   2.076       .  S
C2047      N2063   1.353       .  A
C2047      C2059   1.454       .  S
Co2049    Cl2060   2.473       .  S
N2050      C2061   1.346       .  A
Co2053    Cl2060   2.429       .  S
C2064      N2065   1.362       .  A
C2064      N2069   1.362       .  A
C2064      C2184   1.474       .  S
N2065      C2066   1.359       .  A
C2066      N2067   1.356       .  A
C2066      C2076   1.467       .  S
N2067      C2068   1.356       .  A
C2068      N2069   1.359       .  A
C2070      N2071   1.361       .  A
C2070      N2075   1.363       .  A
C2070      C2251   1.476       .  S
N2071      C2072   1.359       .  A
C2072      N2073   1.353       .  A
N2073      C2074   1.353       .  A
C2074      N2075   1.361       .  A
C2074      C2096   1.466       .  S
C2076      N2094   1.353       .  A
C2076      C2113   1.452       .  S
N2077      N2094   1.329       .  A
N2077      N2099   1.319       .  A
C2078      N2103   1.344       .  A
C2078      C2116   1.461       .  S
C2078      H2123   1.082       .  S
H2079      C2120   1.082       .  S
C2080      N2104   1.337       .  A
C2080      C2084   1.454       .  S
C2080      H2109   1.082       .  S
Co2081     N2121   2.097       .  S
Co2081     N2097   2.083       .  S
Co2081    Cl2125   2.429       .  S
N2082      C2120   1.340       .  A
N2082      N2089   1.322       .  A
Co2083     N2103   2.087       .  S
Co2083    Cl2125   2.475       .  S
C2084      N2122   1.351       .  A
N2085      N2092   1.322       .  A
N2085      N2115   1.327       .  A
N2086      N2104   1.319       .  A
N2086      N2122   1.328       .  A
N2087      C2116   1.348       .  A
N2087      N2097   1.324       .  A
H2088      C2113   1.082       .  S
N2089      N2110   1.325       .  A
N2090      N2108   1.322       .  A
N2090      N2095   1.325       .  A
C2091      N2095   1.349       .  A
C2091      C2119   1.457       .  S
N2092      C2107   1.335       .  A
C2093      N2121   1.340       .  A
C2093      C2096   1.460       .  S
C2093      H2127   1.082       .  S
C2096      N2117   1.347       .  A
N2097      N2103   1.319       .  A
N2098      C2124   1.344       .  A
N2098      N2100   1.320       .  A
N2099      C2113   1.337       .  A
N2100      N2128   1.323       .  A
N2100     Co2118   2.081       .  S
H2101      C2124   1.082       .  S
H2102      C2119   1.082       .  S
N2105      N2117   1.326       .  A
N2105      N2121   1.322       .  A
N2105     Co2114   2.076       .  S
C2106      N2110   1.350       .  A
C2106      C2120   1.457       .  S
C2107      C2126   1.454       .  S
C2107      H2111   1.082       .  S
N2108      C2119   1.339       .  A
N2108     Co2118   2.090       .  S
C2112      N2128   1.347       .  A
C2112      C2124   1.460       .  S
Co2114    Cl2125   2.474       .  S
N2115      C2126   1.350       .  A
C2129      C2134   1.380       .  A
C2129      C2130   1.405       .  A
C2129      O2135   1.319       .  A
C2130      H2141   1.082       .  S
C2130      C2131   1.404       .  A
C2131      C2140   1.363       .  A
C2131      C2132   1.380       .  A
C2132      O2138   1.322       .  A
C2133      H2142   1.082       .  S
C2136      C2137   1.392   1_565  A
C2137      H2143   1.082       .  S
O2138      C2139   1.332       .  A
C2139      C2140   1.393       .  A
C2140      H2144   1.083       .  S
C2145      C2150   1.381       .  A
C2145      C2146   1.405       .  A
C2145      O2151   1.319       .  A
C2146      H2157   1.082       .  S
C2146      C2147   1.403       .  A
C2147      C2156   1.365       .  A
C2147      C2148   1.381       .  A
C2148      C2149   1.401       .  A
C2148      O2154   1.315       .  A
C2149      H2158   1.083       .  S
C2149      C2150   1.399       .  A
C2150      C2153   1.359       .  A
O2151      C2152   1.331       .  A
C2152      C2153   1.389       .  A
C2153      H2159   1.083       .  S
O2154      C2155   1.329       .  A
C2155      C2156   1.391       .  A
C2156      H2160   1.082       .  S
C2161      C2166   1.380       .  A
C2161      C2162   1.406       .  A
C2161      O2167   1.321       .  A
C2162      H2173   1.082       .  S
C2162      C2163   1.405       .  A
C2163      C2172   1.366       .  A
C2163      C2164   1.380       .  A
C2164      C2165   1.402       .  A
C2164      O2170   1.317       .  A
C2165      H2174   1.082       .  S
C2165      C2166   1.401       .  A
C2166      C2169   1.360       .  A
O2167      C2168   1.332       .  A
C2168      C2169   1.390       .  A
C2169      H2175   1.082       .  S
O2170      C2171   1.330       .  A
C2171      C2172   1.393       .  A
C2172      H2176   1.082       .  S
C2177      C2182   1.380       .  A
C2177      C2178   1.404       .  A
C2177      O2183   1.319       .  A
C2178      C2179   1.403       .  A
C2179      C2180   1.380       .  A
C2180      C2181   1.406       .  A
C2180      O2186   1.321       .  A
C2181      H2190   1.082       .  S
C2181      C2182   1.406       .  A
C2182      C2185   1.366       .  A
O2183      C2184   1.331       .  A
C2184      C2185   1.393       .  A
C2185      H2191   1.082       .  S
C2187      C2188   1.391       .  A
C2188      H2192   1.082       .  S
C2193      C2198   1.380       .  A
C2193      C2194   1.405       .  A
C2193      O2199   1.320       .  A
C2194      H2205   1.082       .  S
C2194      C2195   1.404       .  A
C2195      C2204   1.365       .  A
C2195      C2196   1.380       .  A
C2196      C2197   1.403       .  A
C2196      O2202   1.318       .  A
C2197      H2206   1.082       .  S
C2197      C2198   1.402       .  A
C2198      C2201   1.361       .  A
O2199      C2200   1.331       .  A
C2200      C2201   1.390       .  A
C2201      H2207   1.082       .  S
O2202      C2203   1.331       .  A
C2203      C2204   1.392       .  A
C2204      H2208   1.082       .  S
C2209      C2214   1.380       .  A
C2209      C2210   1.404       .  A
C2210      H2221   1.082       .  S
C2210      C2211   1.403       .  A
C2211      C2220   1.364       .  A
C2211      C2212   1.380       .  A
C2212      C2213   1.405       .  A
C2212      O2218   1.320       .  A
C2213      H2222   1.082       .  S
C2213      C2214   1.404       .  A
C2214      C2217   1.363       .  A
C2216      C2217   1.392   1_455  A
C2217      H2223   1.083       .  S
O2218      C2219   1.332       .  A
C2219      C2220   1.391       .  A
C2220      H2224   1.082       .  S
C2225      C2230   1.381       .  A
C2225      O2231   1.317       .  A
C2226      H2237   1.082       .  S
C2226      C2227   1.401       .  A
C2227      C2236   1.362   1_545  A
C2228      C2229   1.401       .  A
C2228      O2234   1.314       .  A
C2229      H2238   1.082       .  S
C2229      C2230   1.399       .  A
C2230      C2233   1.359       .  A
O2231      C2232   1.330       .  A
C2232      C2233   1.389       .  A
C2233      H2239   1.083       .  S
C2235      C2236   1.390       .  A
C2236      H2240   1.082       .  S
C2241      C2246   1.381       .  A
C2241      C2242   1.405       .  A
C2241      O2247   1.321       .  A
C2242      H2253   1.082       .  S
C2242      C2243   1.405       .  A
C2243      C2252   1.364       .  A
C2243      C2244   1.380       .  A
C2244      C2245   1.404       .  A
C2244      O2250   1.320       .  A
C2245      H2254   1.082       .  S
C2245      C2246   1.404       .  A
C2246      C2249   1.362       .  A
O2247      C2248   1.331       .  A
C2248      C2249   1.391       .  A
C2249      H2255   1.082       .  S
O2250      C2251   1.332       .  A
C2251      C2252   1.393       .  A
C2252      H2256   1.082       .  S
C2257      C2262   1.380       .  A
C2257      C2258   1.403       .  A
C2257      O2263   1.319       .  A
C2258      H2269   1.082       .  S
C2258      C2259   1.402       .  A
C2259      C2268   1.360       .  A
C2259      C2260   1.381       .  A
C2260      C2261   1.405       .  A
C2260      O2266   1.320       .  A
C2261      H2270   1.082       .  S
C2261      C2262   1.404       .  A
C2262      C2265   1.363       .  A
O2263      C2264   1.331       .  A
C2264      C2265   1.393       .  A
C2265      H2271   1.082       .  S
O2266      C2267   1.331       .  A
C2267      C2268   1.390       .  A
C2268      H2272   1.082       .  S
C2273      C2278   1.381       .  A
C2273      C2274   1.402       .  A
C2273      O2279   1.319       .  A
C2274      H2285   1.082       .  S
C2274      C2275   1.402       .  A
C2275      C2284   1.360       .  A
C2275      C2276   1.381       .  A
C2276      C2277   1.405       .  A
C2276      O2282   1.322       .  A
C2277      H2286   1.082       .  S
C2277      C2278   1.405       .  A
C2278      C2281   1.363       .  A
O2279      C2280   1.330       .  A
C2280      C2281   1.393       .  A
C2281      H2287   1.083       .  S
O2282      C2283   1.331       .  A
C2283      C2284   1.390       .  A
C2284      H2288   1.082       .  S
C2289      C2294   1.380       .  A
C2289      C2290   1.407       .  A
C2290      C2291   1.407       .  A
C2291      C2300   1.366       .  A
C2291      C2292   1.380       .  A
C2292      C2293   1.402       .  A
C2292      O2298   1.318       .  A
C2293      H2302   1.082       .  S
C2293      C2294   1.401       .  A
C2294      C2297   1.360       .  A
O2295      C2296   1.333       .  A
C2297      H2303   1.082       .  S
O2298      C2299   1.330       .  A
C2299      C2300   1.395       .  A
C2300      H2304   1.083       .  S
C2305      C2310   1.381       .  A
C2305      C2306   1.403       .  A
C2305      O2311   1.318       .  A
C2306      H2317   1.082       .  S
C2306      C2307   1.401       .  A
C2307      C2316   1.362       .  A
C2307      C2308   1.381       .  A
C2308      C2309   1.402       .  A
C2308      O2314   1.317       .  A
C2309      H2318   1.082       .  S
C2309      C2310   1.401       .  A
C2310      C2313   1.361       .  A
O2311      C2312   1.330       .  A
C2312      C2313   1.391       .  A
C2313      H2319   1.083       .  S
O2314      C2315   1.329       .  A
C2315      C2316   1.388       .  A
C2316      H2320   1.082       .  S
C2321      C2326   1.381       .  A
C2321      C2322   1.401       .  A
C2321      O2327   1.315       .  A
C2322      H2333   1.082       .  S
C2322      C2323   1.400       .  A
C2323      C2332   1.360       .  A
C2323      C2324   1.380       .  A
C2324      O2330   1.319       .  A
C2325      H2334   1.082       .  S
O2327      C2328   1.329   1_655  A
C2329      H2335   1.082       .  S
O2330      C2331   1.331       .  A
C2331      C2332   1.390       .  A
C2332      H2336   1.083       .  S
C2337      C2342   1.381       .  A
C2337      C2338   1.404       .  A
C2337      O2343   1.323       .  A
C2338      H2349   1.082       .  S
C2338      C2339   1.404       .  A
C2339      C2348   1.360       .  A
C2339      C2340   1.381       .  A
C2340      C2341   1.402       .  A
C2340      O2346   1.320       .  A
C2341      H2350   1.082       .  S
C2341      C2342   1.403       .  A
C2342      C2345   1.358       .  A
O2343      C2344   1.331       .  A
C2344      C2345   1.392       .  A
C2345      H2351   1.083       .  S
O2346      C2347   1.331       .  A
C2347      C2348   1.392       .  A
C2348      H2352   1.082       .  S
C2353      C2358   1.380       .  A
C2353      C2354   1.403       .  A
C2353      O2359   1.318       .  A
C2354      H2365   1.082       .  S
C2354      C2355   1.402       .  A
C2355      C2364   1.360       .  A
C2355      C2356   1.380       .  A
C2356      C2357   1.408       .  A
C2356      O2362   1.323       .  A
C2357      H2366   1.082       .  S
C2357      C2358   1.407       .  A
C2358      C2361   1.367       .  A
O2359      C2360   1.330       .  A
C2360      C2361   1.394       .  A
C2361      H2367   1.082       .  S
O2362      C2363   1.333       .  A
C2363      C2364   1.391       .  A
C2364      H2368   1.082       .  S
C2369      C2374   1.381   1_455  A
C2369      C2370   1.401       .  A
C2370      H2381   1.082       .  S
C2370      C2371   1.399   1_455  A
C2371      C2380   1.359       .  A
C2371      C2372   1.381       .  A
C2372      C2373   1.403       .  A
C2372      O2378   1.317       .  A
C2373      H2382   1.082       .  S
C2373      C2374   1.402       .  A
C2374      C2377   1.363       .  A
O2375      C2376   1.329       .  A
C2377      H2383   1.082       .  S
O2378      C2379   1.330       .  A
C2379      C2380   1.389       .  A
C2380      H2384   1.083   1_655  S
