geometry optimzed in LAMMPS
_audit_creation_date              2020-12-01 
_audit_creation_method            'lammps2cif' 
_symmetry_space_group_name_H-M    'P1' 
_symmetry_Int_Tables_number       1 
_symmetry_cell_setting            triclinic 
loop_ 
_symmetry_equiv_pos_as_xyz 
  x,y,z 
_cell_length_a                    50.65167567 
_cell_length_b                    56.40103596017971 
_cell_length_c                    53.674271979068024 
_cell_angle_alpha                 89.96232460697763 
_cell_angle_beta                  89.65796867417801 
_cell_angle_gamma                 90.30912526472504 
loop_ 
_atom_site_label 
_atom_site_type_symbol 
_atom_site_fract_x 
_atom_site_fract_y 
_atom_site_fract_z 
_atom_site_charge 
C1          C  0.08287125  0.67760275  0.93037345     0.03400
C2          C  0.06743807  0.66367840  0.94678362    -0.12800
C3          C  0.04311677  0.65347304  0.93909165     0.00900
C4          C  0.03485552  0.65717760  0.91420520    -0.11300
C5          C  0.05073289  0.67057602  0.89759119     0.03400
C6          C  0.07432254  0.68057576  0.90592231    -0.10700
H7          H  0.07434965  0.66096424  0.96561872     0.09000
H8          H  0.01612636  0.65010745  0.90790863     0.06500
H9          H  0.08575979  0.69164839  0.89326932     0.06300
C10         C  0.87515236  0.68024221  0.92934156     0.03400
C11         C  0.88038149  0.67850605  0.90390827    -0.12800
C12         C  0.90240131  0.66632105  0.89488886     0.00900
C13         C  0.91817814  0.65318934  0.91158066    -0.11300
C14         C  0.91210893  0.65292269  0.93738510     0.03400
C15         C  0.89055692  0.66691191  0.94594868    -0.10700
H16         H  0.86827557  0.68841240  0.89099852     0.09000
H17         H  0.93542664  0.64400062  0.90462276     0.06500
H18         H  0.88605233  0.66802877  0.96565862     0.06300
C19         C  0.89795170  0.67743421  0.13905641     0.03400
C20         C  0.91510420  0.66282654  0.12503963    -0.12800
C21         C  0.90716603  0.65426434  0.10148292     0.00900
C22         C  0.88176965  0.66051955  0.09253799    -0.11300
C23         C  0.86469586  0.67487342  0.10661231     0.03400
C24         C  0.87323513  0.68338855  0.12953060    -0.10700
H25         H  0.93462902  0.65890497  0.13199951     0.09000
H26         H  0.87528983  0.65442718  0.07442579     0.06500
H27         H  0.86069940  0.69548442  0.13987059     0.06300
C28         C  0.04834513  0.67243855  0.14719978     0.03400
C29         C  0.03284392  0.65749202  0.13164672    -0.12800
C30         C  0.03874087  0.65559098  0.10577383     0.00900
C31         C  0.06099582  0.66817584  0.09635760    -0.11300
C32         C  0.07557305  0.68381728  0.11131220     0.03400
C33         C  0.06842187  0.68624264  0.13631150    -0.10700
H34         H  0.01638897  0.64766383  0.13953990     0.09000
H35         H  0.06713291  0.66585954  0.07716558     0.06500
H36         H  0.07895622  0.69903243  0.14764781     0.06300
C37         C  0.90651366  0.51684812  0.14266037     0.03400
C38         C  0.92207940  0.53210346  0.12744687    -0.12800
C39         C  0.91328095  0.53841121  0.10329958     0.00900
C40         C  0.88956548  0.52795736  0.09438583    -0.11300
C41         C  0.87410917  0.51280744  0.10938221     0.03400
C42         C  0.88177315  0.50927533  0.13400950    -0.10700
H43         H  0.94127428  0.53799955  0.13378360     0.09000
H44         H  0.88332883  0.53118816  0.07542972     0.06500
H45         H  0.86920119  0.49873749  0.14616638     0.06300
C46         C  0.86862528  0.52381561  0.93075588     0.03400
C47         C  0.87830610  0.51738079  0.90740421    -0.12800
C48         C  0.90300365  0.52505309  0.89887778     0.00900
C49         C  0.91936395  0.53870123  0.91458225    -0.11300
C50         C  0.91035222  0.54512342  0.93863367     0.03400
C51         C  0.88459537  0.53793106  0.94623363    -0.10700
H52         H  0.86640069  0.50606554  0.89553193     0.09000
H53         H  0.93890717  0.54390881  0.90828310     0.06500
H54         H  0.87701274  0.54308312  0.96433541     0.06300
C55         C  0.08929934  0.52737683  0.93152904     0.03400
C56         C  0.07225208  0.53966792  0.94779076    -0.12800
C57         C  0.04650249  0.54637534  0.94022633     0.00900
C58         C  0.03810959  0.54013505  0.91596115    -0.11300
C59         C  0.05475729  0.52679330  0.90005132     0.03400
C60         C  0.08006437  0.52079086  0.90811894    -0.10700
H61         H  0.07915641  0.54409331  0.96628702     0.09000
H62         H  0.01841997  0.54467995  0.90989965     0.06500
H63         H  0.09254029  0.50994762  0.89628167     0.06300
C64         C  0.04455678  0.52168581  0.14594256     0.03400
C65         C  0.02987246  0.53761363  0.13094713    -0.12800
C66         C  0.03689396  0.54111443  0.10553863     0.00900
C67         C  0.05958883  0.52940282  0.09615257    -0.11300
C68         C  0.07410471  0.51371455  0.11086636     0.03400
C69         C  0.06606454  0.50970859  0.13538327    -0.10700
H70         H  0.01333579  0.54711333  0.13885575     0.09000
H71         H  0.06635140  0.53264244  0.07726824     0.06500
H72         H  0.07715008  0.49733921  0.14668337     0.06300
O73         O  0.03128467  0.64416476  0.98087887    -0.75000
O74         O  0.00808406  0.62584223  0.94990947    -0.54000
C75         C  0.02633184  0.64019825  0.95767797     0.78700
O76         O  0.02616048  0.55189991  0.06447077    -0.59600
O77         O  0.00411572  0.57135083  0.09540629    -0.52700
C78         C  0.02115425  0.55588437  0.08763275     0.70700
O79         O  0.03300944  0.55441916  0.98169011    -0.74200
O80         O  0.00976338  0.57217048  0.95049347    -0.54800
C81         C  0.02845605  0.55850561  0.95847845     0.76700
O82         O  0.02704337  0.64583181  0.06436401    -0.59300
O83         O  0.00487133  0.62615281  0.09527860    -0.52500
C84         C  0.02229633  0.64149051  0.08757864     0.73300
Zr85       Zr  0.01430287  0.63387210  0.02234654     2.54700
O86         O  0.06226976  0.63499749  0.02461863    -0.79900
O87         O  0.00977152  0.67677335  0.01994935    -0.93300
Zr88       Zr  0.01484718  0.56442851  0.02254693     2.64700
O89         O  0.06287049  0.56481931  0.02484249    -0.98300
O90         O  0.01079121  0.52140635  0.02139119    -0.80300
O91         O  0.01549946  0.59908702  0.99766785    -0.83700
O92         O  0.01435795  0.59919644  0.04741367    -2.18400
O93         O  0.92178455  0.64522533  0.06121095    -0.67100
O94         O  0.94264868  0.62614832  0.09303755    -0.51700
C95         C  0.92534871  0.64097458  0.08445197     0.71700
O96         O  0.92199260  0.55396937  0.97996548    -0.60000
O97         O  0.94667940  0.57148409  0.94924442    -0.52000
C98         C  0.92762082  0.55779844  0.95689786     0.73500
O99         O  0.92483963  0.54982838  0.06246227    -0.71400
O100        O  0.94554804  0.56958989  0.09395461    -0.50100
C101        C  0.92918486  0.55365844  0.08571237     0.74900
O102        O  0.92286462  0.64353443  0.97906787    -0.66700
O103        O  0.94683017  0.62510097  0.94870658    -0.53900
C104        C  0.92847042  0.63954562  0.95603283     0.73200
Zr105      Zr  0.93733471  0.63272916  0.02066130     2.77500
O106        O  0.88925954  0.63100665  0.01985248    -0.97500
O107        O  0.93939096  0.67579368  0.01811969    -0.78300
Zr108      Zr  0.93803606  0.56351207  0.02131940     2.70100
O109        O  0.89000820  0.56267376  0.02326882    -0.79500
O110        O  0.94197218  0.52059561  0.01857954    -0.98600
Zr111      Zr  0.97732568  0.59842831  0.97146674     2.21500
Zr112      Zr  0.97474611  0.59889337  0.07248154     2.11100
O113        O  0.93647914  0.59824682  0.04609607    -2.47300
O114        O  0.93779503  0.59797072  0.99614276    -0.79300
O115        O  0.97506749  0.63390698  0.04676564    -0.71500
O116        O  0.97706482  0.56322646  0.99671076    -2.32500
O117        O  0.97653070  0.63367952  0.99649711    -2.28700
O118        O  0.97581224  0.56390750  0.04703503    -0.73300
H119        H  0.02976601  0.59932944  0.05793815     0.78700
H120        H  0.97743145  0.54918316  0.98638307     0.79800
H121        H  0.92054221  0.59795322  0.05605389     0.82000
H122        H  0.97667758  0.64765854  0.98607588     0.79600
H123        H  0.02724940  0.51556537  0.02907514     0.42700
H124        H  0.95168121  0.51599032  0.03377423     0.41600
H125        H  0.88470418  0.57925810  0.02007732     0.41300
H126        H  0.88403190  0.62257492  0.03530944     0.39200
H127        H  0.95299500  0.68043569  0.03036533     0.42400
H128        H  0.02812702  0.68278663  0.01857775     0.37200
H129        H  0.06782971  0.61889926  0.01954034     0.43300
H130        H  0.06703417  0.57385514  0.04014468     0.39700
H131        H  0.88359252  0.64758317  0.02259584     0.44600
H132        H  0.00389584  0.68162001  0.03680557     0.43300
H133        H  0.06768039  0.54825668  0.02882701     0.43500
H134        H  0.92378490  0.51459289  0.02138352     0.43800
C135        C  0.55506244  0.01737995  0.13477306     0.03400
C136        C  0.54171196  0.03221845  0.11821904    -0.12800
C137        C  0.53601962  0.02479944  0.09370578     0.00900
C138        C  0.54362156  0.00169923  0.08623095    -0.11300
C139        C  0.55727171  0.98671122  0.10299289     0.03400
C140        C  0.56242936  0.99476815  0.12711565    -0.10700
H141        H  0.53618424  0.04979144  0.12443875     0.09000
H142        H  0.53989959  0.99578206  0.06737991     0.06500
H143        H  0.57365223  0.98375589  0.13975868     0.06300
C144        C  0.56038406  0.01895858  0.92667565     0.03400
C145        C  0.55952219  0.99471358  0.93149517    -0.12800
C146        C  0.54872174  0.98582019  0.95362921     0.00900
C147        C  0.53637133  0.00157383  0.97052622    -0.11300
C148        C  0.53510830  0.02614499  0.96508955     0.03400
C149        C  0.54760282  0.03453362  0.94310539    -0.10700
H150        H  0.56922326  0.98272370  0.91863629     0.09000
H151        H  0.52837703  0.99479717  0.98789691     0.06500
H152        H  0.54801102  0.05332142  0.93892133     0.06300
C153        C  0.53932513  0.22777503  0.95608544     0.03400
C154        C  0.52772292  0.21076531  0.97226229    -0.12800
C155        C  0.53027724  0.18617517  0.96720178     0.00900
C156        C  0.54523270  0.17923410  0.94603850    -0.11300
C157        C  0.55648247  0.19617823  0.92990933     0.03400
C158        C  0.55199481  0.22011197  0.93442064    -0.10700
H159        H  0.51728621  0.21660161  0.98878021     0.09000
H160        H  0.54845593  0.16063379  0.94213101     0.06500
H161        H  0.56023825  0.23313564  0.92165704     0.06300
C162        C  0.55691408  0.22315995  0.09874247     0.03400
C163        C  0.54162422  0.20759038  0.08396807    -0.12800
C164        C  0.53971027  0.18328570  0.09032298     0.00900
C165        C  0.55366268  0.17513453  0.11143990    -0.11300
C166        C  0.56858757  0.19068158  0.12625024     0.03400
C167        C  0.56889309  0.21476740  0.12035119    -0.10700
H168        H  0.53242756  0.21412870  0.06716104     0.09000
H169        H  0.55332053  0.15649135  0.11628541     0.06500
H170        H  0.57990074  0.22702632  0.13192826     0.06300
C171        C  0.39889494  0.22319750  0.96301204     0.03400
C172        C  0.41296750  0.20760727  0.97881630    -0.12800
C173        C  0.41018872  0.18265289  0.97614878     0.00900
C174        C  0.39192307  0.17400169  0.95841038    -0.11300
C175        C  0.37771254  0.18935227  0.94288893     0.03400
C176        C  0.38208596  0.21374740  0.94488803    -0.10700
H177        H  0.42606470  0.21486083  0.99277841     0.09000
H178        H  0.38872775  0.15510265  0.95640920     0.06500
H179        H  0.37178468  0.22568346  0.93250533     0.06300
C180        C  0.40354810  0.01443907  0.92628423     0.03400
C181        C  0.41479561  0.03077003  0.94290962    -0.12800
C182        C  0.42407899  0.02346639  0.96647142     0.00900
C183        C  0.42179017  0.99925147  0.97312017    -0.11300
C184        C  0.41047004  0.98282747  0.95641010     0.03400
C185        C  0.40146504  0.99069301  0.93327013    -0.10700
H186        H  0.41602612  0.04924841  0.93746451     0.09000
H187        H  0.42805434  0.99330952  0.99133457     0.06500
H188        H  0.39137810  0.97835028  0.92104678     0.06300
C189        C  0.40772648  0.01371880  0.13868447     0.03400
C190        C  0.42239002  0.02828038  0.12245482    -0.12800
C191        C  0.42608234  0.02206667  0.09713827     0.00900
C192        C  0.41606401  0.00006701  0.08863339    -0.11300
C193        C  0.40134213  0.98523862  0.10495117     0.03400
C194        C  0.39742972  0.99240518  0.12968522    -0.10700
H195        H  0.43023166  0.04489993  0.12941032     0.09000
H196        H  0.41868664  0.99501960  0.06931975     0.06500
H197        H  0.38520415  0.98162129  0.14193934     0.06300
C198        C  0.39030178  0.21709528  0.09772168     0.03400
C199        C  0.40667032  0.20184669  0.08395109    -0.12800
C200        C  0.41452830  0.17999437  0.09422170     0.00900
C201        C  0.40515227  0.17363849  0.11830588    -0.11300
C202        C  0.38915448  0.18915229  0.13240832     0.03400
C203        C  0.38344978  0.21139560  0.12229895    -0.10700
H204        H  0.41189475  0.20633357  0.06491358     0.09000
H205        H  0.40981680  0.15635036  0.12582705     0.06500
H206        H  0.37220204  0.22407838  0.13308905     0.06300
O207        O  0.52804237  0.06429460  0.08113535    -0.75000
O208        O  0.50865605  0.03477735  0.05856395    -0.54000
C209        C  0.52350934  0.04221298  0.07644048     0.78700
O210        O  0.42641526  0.14062493  0.08441571    -0.59600
O211        O  0.44596895  0.17037268  0.06193597    -0.52700
C212        C  0.43010647  0.16267197  0.07917590     0.70700
O213        O  0.43339604  0.06186215  0.08574697    -0.74200
O214        O  0.45155657  0.03354532  0.06069473    -0.54800
C215        C  0.43787358  0.04010596  0.07990289     0.76700
O216        O  0.53058243  0.14371682  0.07869431    -0.59300
O217        O  0.50704218  0.17267897  0.05930235    -0.52500
C218        C  0.52477420  0.16563174  0.07489954     0.73300
Zr219      Zr  0.51876718  0.10392357  0.06492365     2.54700
O220        O  0.52846703  0.10481361  0.10927666    -0.79900
O221        O  0.56554762  0.10247315  0.05440902    -0.93300
Zr222      Zr  0.44117437  0.10186293  0.07019210     2.64700
O223        O  0.44496290  0.10234427  0.11544070    -0.98300
O224        O  0.39321755  0.09870914  0.07101856    -0.80300
O225        O  0.48059952  0.07971614  0.06767977    -0.83700
O226        O  0.47933240  0.12636347  0.06856031    -2.18400
O227        O  0.52378392  0.14570484  0.97833359    -0.67100
O228        O  0.50267822  0.17362468  0.00177757    -0.51700
C229        C  0.51816188  0.16743326  0.98367655     0.71700
O230        O  0.42912515  0.06335000  0.97979623    -0.60000
O231        O  0.45068676  0.03458693  0.00149241    -0.52000
C232        C  0.43530630  0.04151352  0.98386033     0.73500
O233        O  0.42149483  0.14290005  0.98627559    -0.71400
O234        O  0.44410327  0.17236935  0.00608513    -0.50100
C235        C  0.42625531  0.16503004  0.99070661     0.74900
O236        O  0.52561305  0.06571959  0.97711425    -0.66700
O237        O  0.50728592  0.03589533  0.00031913    -0.53900
C238        C  0.52182313  0.04355828  0.98210063     0.73200
Zr239      Zr  0.51396017  0.10521696  0.99240189     2.77500
O240        O  0.51046111  0.10446106  0.94715196    -0.97500
O241        O  0.56198057  0.10746453  0.99218197    -0.78300
Zr242      Zr  0.43637883  0.10293089  0.99732046     2.70100
O243        O  0.43208936  0.10558130  0.95226047    -0.79500
O244        O  0.38897231  0.09867360  0.00359438    -0.98600
Zr245      Zr  0.47880565  0.05626861  0.03068790     2.21500
Zr246      Zr  0.47606080  0.15088373  0.03214461     2.11100
O247        O  0.47440903  0.12747924  0.99486002    -2.47300
O248        O  0.47584838  0.08083745  0.99449587    -0.79300
O249        O  0.51610534  0.12848139  0.02915649    -0.71500
O250        O  0.43853921  0.07852457  0.03338923    -2.32500
O251        O  0.51774597  0.08066533  0.02826297    -2.28700
O252        O  0.43757755  0.12603821  0.03419145    -0.73300
H253        H  0.47994304  0.13599718  0.08342779     0.78700
H254        H  0.42331538  0.06800349  0.03412691     0.79800
H255        H  0.47303837  0.13751482  0.98032874     0.82000
H256        H  0.53346303  0.07097676  0.02725013     0.79600
H257        H  0.38903196  0.09121716  0.08727068     0.42700
H258        H  0.38444389  0.11111848  0.01587502     0.41600
H259        H  0.45041614  0.10433425  0.94589174     0.41300
H260        H  0.50065071  0.11900053  0.94277054     0.39200
H261        H  0.56780919  0.09182847  0.99840374     0.42400
H262        H  0.57382900  0.09479759  0.06897890     0.37200
H263        H  0.51132937  0.10128092  0.11748020     0.43300
H264        H  0.45534947  0.11678775  0.11930445     0.39700
H265        H  0.52866751  0.10743318  0.94105388     0.44600
H266        H  0.57159715  0.11917570  0.05517064     0.43300
H267        H  0.42692751  0.10583928  0.12158537     0.43500
H268        H  0.38119035  0.10428078  0.98778238     0.43800
C269        C  0.07446717  0.00864393  0.61279617     0.03400
C270        C  0.06645210  0.98502474  0.61432401    -0.12800
C271        C  0.04454728  0.97662327  0.60126339     0.00900
C272        C  0.02945046  0.99252790  0.58686904    -0.11300
C273        C  0.03708727  0.01670768  0.58504489     0.03400
C274        C  0.06003963  0.02429504  0.59782500    -0.10700
H275        H  0.07727245  0.97293658  0.62617682     0.09000
H276        H  0.01199049  0.98615235  0.57738291     0.06500
H277        H  0.06674829  0.04250642  0.59634571     0.06300
C278        C  0.86456967  0.01579127  0.60708101     0.03400
C279        C  0.88250365  0.02928591  0.59331926    -0.12800
C280        C  0.90690904  0.01975265  0.58549842     0.00900
C281        C  0.91338528  0.99633824  0.59336126    -0.11300
C282        C  0.89478804  0.98251675  0.60745651     0.03400
C283        C  0.86951502  0.99192217  0.61117842    -0.10700
H284        H  0.87781057  0.04772918  0.58993831     0.09000
H285        H  0.93293515  0.98953638  0.58957139     0.06500
H286        H  0.85403968  0.98131419  0.61964282     0.06300
C287        C  0.90325019  0.21728537  0.60055572     0.03400
C288        C  0.91982570  0.20147420  0.58733106    -0.12800
C289        C  0.91138437  0.17779262  0.58308209     0.00900
C290        C  0.88607434  0.17074894  0.59176646    -0.11300
C291        C  0.86949420  0.18683198  0.60400273     0.03400
C292        C  0.87837129  0.20977092  0.60845335    -0.10700
H293        H  0.93930126  0.20723864  0.58139884     0.09000
H294        H  0.87902067  0.15280250  0.58882681     0.06500
H295        H  0.86593195  0.22187124  0.61891752     0.06300
C296        C  0.04758103  0.21630777  0.60057704     0.03400
C297        C  0.03298644  0.20097639  0.58483298    -0.12800
C298        C  0.04036188  0.17683393  0.58238787     0.00900
C299        C  0.06350917  0.16905659  0.59436651    -0.11300
C300        C  0.07795288  0.18417693  0.60994817     0.03400
C301        C  0.06902475  0.20720670  0.61368933    -0.10700
H302        H  0.01575127  0.20756001  0.57526862     0.09000
H303        H  0.07015165  0.15097267  0.59197863     0.06500
H304        H  0.07882904  0.21828938  0.62733257     0.06300
C305        C  0.90609549  0.21649716  0.45212003     0.03400
C306        C  0.88185212  0.20894711  0.44259836    -0.12800
C307        C  0.87126905  0.18677538  0.44850857     0.00900
C308        C  0.88614008  0.17119096  0.46310439    -0.11300
C309        C  0.91138990  0.17763319  0.47182299     0.03400
C310        C  0.92100378  0.20077640  0.46688489    -0.10700
H311        H  0.87145315  0.22032047  0.42970685     0.09000
H312        H  0.87815862  0.15376331  0.46727348     0.06500
H313        H  0.94024308  0.20619095  0.47357672     0.06300
C314        C  0.86280944  0.01268619  0.45275360     0.03400
C315        C  0.87887971  0.02584591  0.46889908    -0.12800
C316        C  0.90541938  0.01932772  0.47312363     0.00900
C317        C  0.91556671  0.99904001  0.46108242    -0.11300
C318        C  0.89939727  0.98592961  0.44475313     0.03400
C319        C  0.87294565  0.99227904  0.44176159    -0.10700
H320        H  0.87105312  0.04185792  0.47722111     0.09000
H321        H  0.93626452  0.99462242  0.46280808     0.06500
H322        H  0.86074734  0.98231527  0.42887977     0.06300
C323        C  0.08292238  0.00612519  0.45336342     0.03400
C324        C  0.06630620  0.02239701  0.46551920    -0.12800
C325        C  0.04066318  0.01576273  0.47375657     0.00900
C326        C  0.03186209  0.99225816  0.46919105    -0.11300
C327        C  0.04848060  0.97590596  0.45678833     0.03400
C328        C  0.07370065  0.98315370  0.44904880    -0.10700
H329        H  0.07345727  0.04030846  0.46846795     0.09000
H330        H  0.01210022  0.98687665  0.47464901     0.06500
H331        H  0.08597945  0.97096176  0.43857249     0.06300
C332        C  0.05060411  0.21541440  0.45321361     0.03400
C333        C  0.07420456  0.20665981  0.44356091    -0.12800
C334        C  0.07958024  0.18244445  0.44364199     0.00900
C335        C  0.06199901  0.16696632  0.45573918    -0.11300
C336        C  0.03921895  0.17545257  0.46807165     0.03400
C337        C  0.03326766  0.19997021  0.46631194    -0.10700
H338        H  0.08750962  0.21871969  0.43387379     0.09000
H339        H  0.06597057  0.14814167  0.45513187     0.06500
H340        H  0.01493568  0.20672037  0.47390485     0.06300
O341        O  0.02898439  0.05591672  0.48100350    -0.75000
O342        O  0.00415512  0.02736360  0.50035685    -0.54000
C343        C  0.02332910  0.03404277  0.48585651     0.78700
O344        O  0.02896291  0.13692411  0.57330463    -0.59600
O345        O  0.00607346  0.16605058  0.55352666    -0.52700
C346        C  0.02399695  0.15895176  0.56873637     0.70700
O347        O  0.02751051  0.05658081  0.57456252    -0.74200
O348        O  0.00311277  0.02765116  0.55570927    -0.54800
C349        C  0.02145311  0.03462956  0.57073844     0.76700
O350        O  0.02631955  0.13586830  0.47698606    -0.59300
O351        O  0.00506822  0.16544665  0.49782687    -0.52500
C352        C  0.02211992  0.15797983  0.48173178     0.73300
Zr353      Zr  0.01209859  0.09586637  0.48899065     2.54700
O354        O  0.05962352  0.09739650  0.48212172    -0.79900
O355        O  0.00403209  0.09323581  0.44437367    -0.93300
Zr356      Zr  0.01465374  0.09665971  0.56231083     2.64700
O357        O  0.06260834  0.09497765  0.55945616    -0.98300
O358        O  0.01484197  0.09739087  0.60765578    -0.80300
O359        O  0.01307774  0.07283961  0.52597769    -0.83700
O360        O  0.01447015  0.11965352  0.52538796    -2.18400
O361        O  0.92161332  0.13753921  0.48023604    -0.67100
O362        O  0.94604673  0.16613611  0.49956113    -0.51700
C363        C  0.92753409  0.15939915  0.48473689     0.71700
O364        O  0.92172795  0.05843531  0.57612951    -0.60000
O365        O  0.94293270  0.02820148  0.55635316    -0.52000
C366        C  0.92543464  0.03620807  0.57184171     0.73500
O367        O  0.92314210  0.13788374  0.57580113    -0.71400
O368        O  0.94633940  0.16638654  0.55474064    -0.50100
C369        C  0.92833855  0.15971295  0.57046394     0.74900
O370        O  0.91765133  0.05833662  0.48257676    -0.66700
O371        O  0.94199662  0.02877225  0.50010394    -0.53900
C372        C  0.92292784  0.03635646  0.48632425     0.73200
Zr373      Zr  0.93526027  0.09741404  0.49158378     2.77500
O374        O  0.88720038  0.09804003  0.48984892    -0.97500
O375        O  0.94025849  0.09596972  0.44644558    -0.78300
Zr376      Zr  0.93759131  0.09792661  0.56506625     2.70100
O377        O  0.88986113  0.09895084  0.57043265    -0.79500
O378        O  0.94548612  0.09814296  0.60975871    -0.98600
Zr379      Zr  0.97346826  0.04936870  0.52766404     2.21500
Zr380      Zr  0.97576317  0.14407824  0.52666463     2.11100
O381        O  0.93608981  0.12084480  0.52810899    -2.47300
O382        O  0.93528110  0.07431515  0.52859956    -0.79300
O383        O  0.97431794  0.12053184  0.48952088    -0.71500
O384        O  0.97542932  0.07352353  0.56446181    -2.32500
O385        O  0.97297844  0.07259608  0.49007762    -2.28700
O386        O  0.97669352  0.12107078  0.56412721    -0.73300
H387        H  0.03025935  0.12931532  0.52477234     0.78700
H388        H  0.97552740  0.06378653  0.57926646     0.79800
H389        H  0.92065002  0.13081726  0.52843506     0.82000
H390        H  0.97232589  0.06244614  0.47557500     0.79600
H391        H  0.03329170  0.09373658  0.61221653     0.42700
H392        H  0.96127065  0.10835251  0.61188096     0.41600
H393        H  0.88286243  0.09777501  0.55329010     0.41300
H394        H  0.88189260  0.11137544  0.50073719     0.39200
H395        H  0.92586487  0.08537751  0.44073841     0.42400
H396        H  0.01138673  0.07772157  0.43933049     0.37200
H397        H  0.06704175  0.10131205  0.49864593     0.43300
H398        H  0.06754228  0.10763068  0.54749178     0.39700
H399        H  0.88307911  0.10343114  0.47275160     0.44600
H400        H  0.01621050  0.10505694  0.43685190     0.43300
H401        H  0.06885964  0.10088886  0.57576659     0.43500
H402        H  0.93079943  0.10755985  0.61681567     0.43800
C403        C  0.01329265  0.44055001  0.30249210    -0.10600
C404        C  0.98872158  0.45029315  0.29715489    -0.04500
C405        C  0.96585786  0.43666741  0.29846366    -0.10600
C406        C  0.96605849  0.41522176  0.31209080     0.10400
C407        C  0.99029572  0.40689582  0.32205353    -0.02400
C408        C  0.01432490  0.41905149  0.31636250     0.10200
C409        C  0.03823358  0.40963401  0.32503040    -0.12400
C410        C  0.03848586  0.38927976  0.34017507    -0.12400
C411        C  0.01493145  0.37720672  0.34627522     0.10200
C412        C  0.99060292  0.38580690  0.33658346    -0.02400
C413        C  0.94272407  0.40233552  0.31653675    -0.12500
C414        C  0.94279294  0.38220200  0.33176035    -0.12500
C415        C  0.96642886  0.37367906  0.34191645     0.10400
C416        C  0.96688106  0.35306929  0.35692812    -0.10600
C417        C  0.99087644  0.34456682  0.36541360    -0.04500
C418        C  0.01457207  0.35666582  0.36165097    -0.10600
H419        H  0.05675508  0.41847256  0.32078033     0.07600
H420        H  0.05723720  0.38290245  0.34698396     0.07600
H421        H  0.92412439  0.40836211  0.30902584     0.07800
H422        H  0.92425959  0.37311213  0.33530865     0.07800
H423        H  0.98801550  0.46655087  0.28626980     0.04200
H424        H  0.99081583  0.32877991  0.37707838     0.04200
C425        C  0.31611973  0.06912160  0.28563152    -0.10600
C426        C  0.32218975  0.09074751  0.27435165    -0.04500
C427        C  0.30831801  0.11133480  0.27968298    -0.10600
C428        C  0.28799983  0.11084853  0.29778379     0.10400
C429        C  0.28181331  0.08910979  0.31005284    -0.02400
C430        C  0.29617345  0.06815907  0.30426025     0.10200
C431        C  0.28990242  0.04701437  0.31691632    -0.12400
C432        C  0.26905301  0.04609242  0.33414669    -0.12400
C433        C  0.25372621  0.06625273  0.33914085     0.10200
C434        C  0.26044786  0.08810832  0.32727265    -0.02400
C435        C  0.27322503  0.13119917  0.30329672    -0.12500
C436        C  0.25219588  0.13020766  0.32016023    -0.12500
C437        C  0.24531492  0.10883495  0.33203297     0.10400
C438        C  0.22332677  0.10734447  0.34820795    -0.10600
C439        C  0.21705108  0.08590594  0.35959115    -0.04500
C440        C  0.23152763  0.06537761  0.35535214    -0.10600
H441        H  0.30088136  0.03096303  0.31320857     0.07600
H442        H  0.26460441  0.02936243  0.34319134     0.07600
H443        H  0.27766091  0.14796782  0.29432179     0.07800
H444        H  0.24110073  0.14624493  0.32360889     0.07800
H445        H  0.33711295  0.09127540  0.25971373     0.04200
H446        H  0.20000603  0.08510605  0.37196440     0.04200
C447        C  0.23175056  0.43641240  0.03698732    -0.10600
C448        C  0.22639406  0.44666228  0.01404020    -0.04500
C449        C  0.23976908  0.44040235  0.99230560    -0.10600
C450        C  0.25985741  0.42301992  0.99333165     0.10400
C451        C  0.26558092  0.41211854  0.01662006    -0.02400
C452        C  0.25096068  0.41837216  0.03844126     0.10200
C453        C  0.25592520  0.40645519  0.06089567    -0.12400
C454        C  0.27493319  0.38868360  0.06206269    -0.12400
C455        C  0.29034612  0.38300003  0.04109804     0.10200
C456        C  0.28580748  0.39481946  0.01810872    -0.02400
C457        C  0.27435613  0.41629770  0.97206845    -0.12500
C458        C  0.29457891  0.39946420  0.97362792    -0.12500
C459        C  0.30077426  0.38866696  0.99645434     0.10400
C460        C  0.32134443  0.37170850  0.99858021    -0.10600
C461        C  0.32642504  0.36173466  0.02183204    -0.04500
C462        C  0.31032872  0.36577792  0.04244173    -0.10600
H463        H  0.24502834  0.41073668  0.07769774     0.07600
H464        H  0.27808935  0.37985610  0.07971647     0.07600
H465        H  0.27029808  0.42426504  0.95414447     0.07800
H466        H  0.30547696  0.39499435  0.95687670     0.07800
H467        H  0.21086352  0.45982092  0.01299363     0.04200
H468        H  0.34133575  0.34800623  0.02322540     0.04200
C469        C  0.63882370  0.07991377  0.28327647    -0.10600
C470        C  0.63390491  0.10148838  0.27150543    -0.04500
C471        C  0.64850588  0.12180942  0.27668355    -0.10600
C472        C  0.66769724  0.12125067  0.29555564     0.10400
C473        C  0.67256049  0.09960521  0.30834829    -0.02400
C474        C  0.65840108  0.07867523  0.30192007     0.10200
C475        C  0.66414219  0.05734243  0.31429956    -0.12400
C476        C  0.68353867  0.05652266  0.33274568    -0.12400
C477        C  0.69795145  0.07695717  0.33918603     0.10200
C478        C  0.69221627  0.09877165  0.32700301    -0.02400
C479        C  0.68205304  0.14167844  0.30192002    -0.12500
C480        C  0.70076974  0.14104351  0.32078111    -0.12500
C481        C  0.70634108  0.11976839  0.33324662     0.10400
C482        C  0.72609493  0.11873155  0.35152959    -0.10600
C483        C  0.73173184  0.09728681  0.36301981    -0.04500
C484        C  0.71826054  0.07643688  0.35722578    -0.10600
H485        H  0.65354266  0.04118422  0.30984030     0.07600
H486        H  0.68737579  0.03975344  0.34183707     0.07600
H487        H  0.67860185  0.15837791  0.29254947     0.07800
H488        H  0.71127667  0.15725485  0.32522435     0.07800
H489        H  0.61969722  0.10205576  0.25642305     0.04200
H490        H  0.74729969  0.09679750  0.37686804     0.04200
C491        C  0.95285638  0.77492531  0.27739454    -0.10600
C492        C  0.97632783  0.76339879  0.27174734    -0.04500
C493        C  0.99986340  0.76838003  0.28395959    -0.10600
C494        C  0.00014528  0.78592449  0.30294645     0.10400
C495        C  0.97646058  0.79859215  0.30827966    -0.02400
C496        C  0.95280466  0.79333234  0.29510217     0.10200
C497        C  0.92988423  0.80645567  0.30001180    -0.12400
C498        C  0.93005637  0.82470278  0.31749373    -0.12400
C499        C  0.95288000  0.82978299  0.33119853     0.10200
C500        C  0.97632799  0.81653569  0.32680644    -0.02400
C501        C  0.02309290  0.79140783  0.31645501    -0.12500
C502        C  0.02287149  0.80896650  0.33499735    -0.12500
C503        C  0.99973838  0.82167075  0.34047263     0.10400
C504        C  0.99885271  0.83933420  0.35929961    -0.10600
C505        C  0.97539978  0.85142098  0.36361035    -0.04500
C506        C  0.95311591  0.84793841  0.34916928    -0.10600
H507        H  0.91173275  0.80284601  0.29012406     0.07600
H508        H  0.91204773  0.83457087  0.32058161     0.07600
H509        H  0.04131420  0.78205556  0.31275801     0.07800
H510        H  0.04089494  0.81254197  0.34510815     0.07800
H511        H  0.97617125  0.74973137  0.25746381     0.04200
H512        H  0.97505585  0.86542555  0.37750106     0.04200
C513        C  0.28355311  0.11745177  0.80082969    -0.10600
C514        C  0.29706754  0.09670020  0.80622647    -0.04500
C515        C  0.29218883  0.07553020  0.79364489    -0.10600
C516        C  0.27333960  0.07494107  0.77432804     0.10400
C517        C  0.25923537  0.09595384  0.76855566    -0.02400
C518        C  0.26457351  0.11741784  0.78163581     0.10200
C519        C  0.25087745  0.13808463  0.77517766    -0.12400
C520        C  0.23199328  0.13772205  0.75634675    -0.12400
C521        C  0.22554594  0.11649211  0.74406925     0.10200
C522        C  0.23923742  0.09535531  0.75018225    -0.02400
C523        C  0.26782459  0.05400965  0.76106430    -0.12500
C524        C  0.24775671  0.05331886  0.74329923    -0.12500
C525        C  0.23287135  0.07362871  0.73800452     0.10400
C526        C  0.21155006  0.07303842  0.72105665    -0.10600
C527        C  0.19814903  0.09391656  0.71573211    -0.04500
C528        C  0.20539981  0.11558030  0.72608394    -0.10600
H529        H  0.25481966  0.15469171  0.78459938     0.07600
H530        H  0.22185997  0.15404383  0.75194913     0.07600
H531        H  0.27858631  0.03787992  0.76486222     0.07800
H532        H  0.24366020  0.03669368  0.73396968     0.07800
H533        H  0.31122945  0.09682519  0.82136797     0.04200
H534        H  0.18225257  0.09348577  0.70221551     0.04200
C535        C  0.94726953  0.43281582  0.75694312    -0.10600
C536        C  0.97103050  0.44006847  0.76736957    -0.04500
C537        C  0.99529574  0.43207102  0.75875445    -0.10600
C538        C  0.99606068  0.41463600  0.73973858     0.10400
C539        C  0.97182379  0.40614302  0.72953866    -0.02400
C540        C  0.94726991  0.41541585  0.73806699     0.10200
C541        C  0.92364848  0.40716717  0.72750064    -0.12400
C542        C  0.92392656  0.38980702  0.70896273    -0.12400
C543        C  0.94782957  0.38014320  0.70047533     0.10200
C544        C  0.97210244  0.38844153  0.71073631    -0.02400
C545        C  0.02000808  0.40552440  0.73062988    -0.12500
C546        C  0.02027098  0.38783045  0.71231440    -0.12500
C547        C  0.99659927  0.37885131  0.70242019     0.10400
C548        C  0.99636449  0.36033594  0.68459095    -0.10600
C549        C  0.97243580  0.35270891  0.67479468    -0.04500
C550        C  0.94837383  0.36240088  0.68190656    -0.10600
H551        H  0.90478354  0.41406349  0.73362105     0.07600
H552        H  0.90526924  0.38390835  0.70133940     0.07600
H553        H  0.03866204  0.41186778  0.73786965     0.07800
H554        H  0.03912384  0.38104145  0.70602210     0.07800
H555        H  0.97065117  0.45311307  0.78228307     0.04200
H556        H  0.97252219  0.33828395  0.66135793     0.04200
C557        C  0.22385560  0.77924952  0.99217211    -0.10600
C558        C  0.21109977  0.77294230  0.01426281    -0.04500
C559        C  0.21904295  0.78152384  0.03732850    -0.10600
C560        C  0.24015104  0.79796583  0.03865689     0.10400
C561        C  0.25303005  0.80532946  0.01626762    -0.02400
C562        C  0.24500976  0.79582966  0.99285395     0.10200
C563        C  0.25846032  0.80299301  0.97111430    -0.12400
C564        C  0.27936086  0.81933956  0.97220114    -0.12400
C565        C  0.28742840  0.82906620  0.99505736     0.10200
C566        C  0.27413349  0.82201101  0.01736361    -0.02400
C567        C  0.24853099  0.80733386  0.06155933    -0.12500
C568        C  0.26889882  0.82409232  0.06258673    -0.12500
C569        C  0.28188762  0.83166217  0.04079639     0.10400
C570        C  0.30271996  0.84843669  0.04162200    -0.10600
C571        C  0.31540020  0.85498564  0.01964091    -0.04500
C572        C  0.30855586  0.84556790  0.99657590    -0.10600
H573        H  0.25285534  0.79594883  0.95313059     0.07600
H574        H  0.28923001  0.82434375  0.95501967     0.07600
H575        H  0.23908319  0.80195561  0.07882607     0.07800
H576        H  0.27457495  0.83100347  0.08060652     0.07800
H577        H  0.19486440  0.76027397  0.01356795     0.04200
H578        H  0.33101292  0.86826400  0.02047575     0.04200
C579        C  0.71318356  0.43990133  0.03642666    -0.10600
C580        C  0.72003535  0.45068376  0.01398816    -0.04500
C581        C  0.70962167  0.44323694  0.99130585    -0.10600
C582        C  0.69018686  0.42498220  0.99108858     0.10400
C583        C  0.68174238  0.41478118  0.01412918    -0.02400
C584        C  0.69341166  0.42223064  0.03688108     0.10200
C585        C  0.68509537  0.41188907  0.05941092    -0.12400
C586        C  0.66536239  0.39457758  0.05979994    -0.12400
C587        C  0.65402941  0.38641186  0.03757839     0.10200
C588        C  0.66231821  0.39651218  0.01441784    -0.02400
C589        C  0.67889855  0.41674091  0.96882208    -0.12500
C590        C  0.65968035  0.39873961  0.96908577    -0.12500
C591        C  0.65135598  0.38823990  0.99160033     0.10400
C592        C  0.63275819  0.36934335  0.99226672    -0.10600
C593        C  0.62522948  0.35972968  0.01514216    -0.04500
C594        C  0.63463093  0.36832844  0.03769494    -0.10600
H595        H  0.69352854  0.41747788  0.07696275     0.07600
H596        H  0.65925916  0.38741362  0.07765169     0.07600
H597        H  0.68485310  0.42425672  0.95107530     0.07800
H598        H  0.65153827  0.39285023  0.95152093     0.07800
H599        H  0.73577732  0.46386646  0.01396045     0.04200
H600        H  0.61123045  0.34504858  0.01539989     0.04200
C601        C  0.00013194  0.75322611  0.74904933    -0.10600
C602        C  0.97592848  0.74490282  0.75789944    -0.04500
C603        C  0.95196423  0.75413638  0.75008529    -0.10600
C604        C  0.95182371  0.77354911  0.73343628     0.10400
C605        C  0.97629220  0.78228464  0.72382143    -0.02400
C606        C  0.00061578  0.77205211  0.73158220     0.10200
C607        C  0.02443522  0.78076079  0.72154932    -0.12400
C608        C  0.02454378  0.79932575  0.70426091    -0.12400
C609        C  0.00087463  0.81001500  0.69679012     0.10200
C610        C  0.97643612  0.80136398  0.70654845    -0.02400
C611        C  0.92817229  0.78442818  0.72621464    -0.12500
C612        C  0.92837401  0.80359544  0.70967700    -0.12500
C613        C  0.95218152  0.81211767  0.69945453     0.10400
C614        C  0.95266587  0.83106747  0.68217944    -0.10600
C615        C  0.97668646  0.83878232  0.67247791    -0.04500
C616        C  0.00067670  0.82926385  0.67989323    -0.10600
H617        H  0.04312800  0.77313822  0.72694025     0.07600
H618        H  0.04332170  0.80544550  0.69686996     0.07600
H619        H  0.90936259  0.77818954  0.73341211     0.07800
H620        H  0.90972703  0.81150433  0.70459278     0.07800
H621        H  0.97569863  0.73076391  0.77167351     0.04200
H622        H  0.97682348  0.85385753  0.65981845     0.04200
C623        C  0.64910902  0.13771069  0.78263875    -0.10600
C624        C  0.64055727  0.11603604  0.79222586    -0.04500
C625        C  0.65181098  0.09475159  0.78466555    -0.10600
C626        C  0.67111424  0.09473053  0.76569617     0.10400
C627        C  0.67766440  0.11641436  0.75364998    -0.02400
C628        C  0.66695216  0.13814489  0.76238442     0.10200
C629        C  0.67444538  0.15948455  0.75079074    -0.12400
C630        C  0.69122727  0.15939460  0.73004507    -0.12400
C631        C  0.70166862  0.13803546  0.72091638     0.10200
C632        C  0.69557025  0.11643150  0.73337801    -0.02400
C633        C  0.68407036  0.07381249  0.75860377    -0.12500
C634        C  0.70266763  0.07402406  0.73936483    -0.12500
C635        C  0.70808901  0.09497903  0.72613108     0.10400
C636        C  0.72595189  0.09536190  0.70595398    -0.10600
C637        C  0.72894704  0.11597766  0.69198735    -0.04500
C638        C  0.71814522  0.13744499  0.69965454    -0.10600
H639        H  0.66669619  0.17626560  0.75725145     0.07600
H640        H  0.69586705  0.17612309  0.72108299     0.07600
H641        H  0.67980532  0.05714328  0.76784732     0.07800
H642        H  0.71221655  0.05753637  0.73445955     0.07800
H643        H  0.62669413  0.11590347  0.80776626     0.04200
H644        H  0.74265604  0.11587317  0.67632699     0.04200
C645        C  0.72544187  0.77410014  0.99354645    -0.10600
C646        C  0.73083316  0.76203944  0.01555086    -0.04500
C647        C  0.72015361  0.76883024  0.03837842    -0.10600
C648        C  0.70164463  0.78757319  0.03922643     0.10400
C649        C  0.69487481  0.79945101  0.01671851    -0.02400
C650        C  0.70678292  0.79266539  0.99371493     0.10200
C651        C  0.69970655  0.80453335  0.97173235    -0.12400
C652        C  0.68095155  0.82263567  0.97216372    -0.12400
C653        C  0.66988215  0.83036301  0.99478096     0.10200
C654        C  0.67709380  0.81883523  0.01736670    -0.02400
C655        C  0.69023369  0.79509243  0.06179285    -0.12500
C656        C  0.67332124  0.81461680  0.06252284    -0.12500
C657        C  0.66688810  0.82693349  0.04064032     0.10400
C658        C  0.65084488  0.84741474  0.04114008    -0.10600
C659        C  0.64393339  0.85821851  0.01884221    -0.04500
C660        C  0.65232576  0.84976650  0.99579889    -0.10600
H661        H  0.70835597  0.79956923  0.95399985     0.07600
H662        H  0.67580574  0.83113737  0.95477138     0.07600
H663        H  0.69485142  0.78619607  0.07910089     0.07800
H664        H  0.66545706  0.82019785  0.08037124     0.07800
H665        H  0.74558118  0.74809786  0.01520580     0.04200
H666        H  0.63113455  0.87363435  0.01941470     0.04200
C667        C  0.03941968  0.32843425  0.41787614    -0.11100
C668        C  0.04992585  0.30779138  0.40722925     0.15400
C669        C  0.05783225  0.30862589  0.38180277     0.02300
C670        C  0.05072213  0.32807927  0.36690908    -0.15500
C671        C  0.03658539  0.34718872  0.37695527    -0.10300
C672        C  0.03359539  0.34830380  0.40321287     0.09000
C673        C  0.04775425  0.28481220  0.42130757     0.10100
S674        S  0.07500912  0.28455339  0.36679190    -0.24600
H675        H  0.05342405  0.32695253  0.34690253     0.20300
S676        S  0.01674133  0.37255251  0.41818448    -0.30300
H677        H  0.03338378  0.32839694  0.43726716     0.10600
C678        C  0.05807962  0.28141223  0.44550863     0.03800
C679        C  0.05545537  0.25908130  0.45723300    -0.12600
C680        C  0.04366267  0.23972434  0.44499680    -0.08300
C681        C  0.03348998  0.24327523  0.42078932     0.07300
C682        C  0.03450788  0.26579458  0.40990583    -0.13400
S683        S  0.07705794  0.30449650  0.46047315    -0.30300
H684        H  0.06471278  0.25605404  0.47507736     0.11500
S685        S  0.02343989  0.21914839  0.40081663    -0.27400
H686        H  0.02620198  0.26813210  0.39151354     0.08800
H687        H  0.02071605  0.38880005  0.39861508     0.27200
H688        H  0.08125528  0.29246221  0.48305994     0.22000
H689        H  0.01559647  0.20337458  0.41968841     0.27300
H690        H  0.08637817  0.27561134  0.38870301     0.16100
C691        C  0.14066302  0.14948406  0.42063710    -0.11100
C692        C  0.14404460  0.15969435  0.39694041     0.15400
C693        C  0.12589010  0.17673640  0.38862970     0.02300
C694        C  0.10473921  0.18296195  0.40395968    -0.15500
C695        C  0.10186433  0.17362264  0.42817601    -0.10300
C696        C  0.12030059  0.15669285  0.43660335     0.09000
C697        C  0.16578724  0.15107470  0.38090539     0.10100
S698        S  0.12879367  0.19154736  0.35893134    -0.24600
H699        H  0.09054607  0.19560954  0.39696743     0.20300
S700        S  0.11991439  0.14437426  0.46762512    -0.30300
H701        H  0.15441040  0.13612448  0.42693953     0.10600
C702        C  0.19242689  0.15364015  0.38796130     0.03800
C703        C  0.21204538  0.14163907  0.37451492    -0.12600
C704        C  0.20540577  0.12711590  0.35429999    -0.08300
C705        C  0.17905202  0.12627558  0.34596703     0.07300
C706        C  0.15946965  0.13828641  0.35935475    -0.13400
S707        S  0.20125624  0.17103934  0.41492888    -0.30300
H708        H  0.23221634  0.14179715  0.38108752     0.11500
S709        S  0.17004944  0.10773067  0.31989075    -0.27400
H710        H  0.13897590  0.13654014  0.35399142     0.08800
H711        H  0.11088437  0.16511555  0.47935217     0.27200
H712        H  0.22877202  0.16942466  0.41175214     0.22000
H713        H  0.14287595  0.11275686  0.32033317     0.27300
H714        H  0.15647785  0.19054061  0.35735084     0.16100
C715        C  0.15507708  0.00440184  0.43284675    -0.11100
C716        C  0.15575794  0.02244028  0.41481788     0.15400
C717        C  0.13308236  0.03669767  0.41162884     0.02300
C718        C  0.10997644  0.03166841  0.42518050    -0.15500
C719        C  0.10904313  0.01323821  0.44273202    -0.10300
C720        C  0.13230656  0.00009201  0.44722356     0.09000
C721        C  0.18010944  0.02625236  0.39951140     0.10100
S722        S  0.13233186  0.06161781  0.39054936    -0.24600
H723        H  0.09237822  0.04194138  0.42160508     0.20300
S724        S  0.13432888  0.97792593  0.47136431    -0.30300
H725        H  0.17248331  0.99371207  0.43586181     0.10600
C726        C  0.20361175  0.03518235  0.41004765     0.03800
C727        C  0.22391585  0.04361236  0.39432340    -0.12600
C728        C  0.22082020  0.04407827  0.36830009    -0.08300
C729        C  0.19879557  0.03229936  0.35790472     0.07300
C730        C  0.17874634  0.02351420  0.37354710    -0.13400
S731        S  0.20627361  0.03921595  0.44331283    -0.30300
H732        H  0.24046142  0.05307271  0.40236321     0.11500
S733        S  0.19304167  0.03175477  0.32481290    -0.27400
H734        H  0.16097989  0.01622209  0.36532938     0.08800
H735        H  0.11508423  0.98810068  0.48698540     0.27200
H736        H  0.23312129  0.04572286  0.44342454     0.22000
H737        H  0.21981301  0.03230161  0.31794711     0.27300
H738        H  0.15881154  0.06837322  0.39402033     0.16100
C739        C  0.05223777  0.91084931  0.44029813    -0.11100
C740        C  0.03392690  0.90953061  0.42086990     0.15400
C741        C  0.01658344  0.92887061  0.41713314     0.02300
C742        C  0.01993732  0.94981322  0.43094040    -0.15500
C743        C  0.03973590  0.95177684  0.44900886    -0.10300
C744        C  0.05505638  0.93151955  0.45455170     0.09000
C745        C  0.03342547  0.88788766  0.40488053     0.10100
S746        S  0.99042279  0.92836601  0.39448011    -0.24600
H747        H  0.00797860  0.96512173  0.42655992     0.20300
S748        S  0.07933948  0.93133045  0.47898588    -0.30300
H749        H  0.06494888  0.89586601  0.44396021     0.10600
C750        C  0.03974566  0.88870000  0.37921324     0.03800
C751        C  0.03375838  0.86907178  0.36400135    -0.12600
C752        C  0.02133401  0.84879865  0.37398149    -0.08300
C753        C  0.01979790  0.84659298  0.40020064     0.07300
C754        C  0.02533533  0.86623077  0.41534144    -0.13400
S755        S  0.05376391  0.91523110  0.36556633    -0.30300
H756        H  0.03520479  0.87085223  0.34394708     0.11500
S757        S  0.00587601  0.82057610  0.41478594    -0.27400
H758        H  0.02150553  0.86509977  0.43519132     0.08800
H759        H  0.06781124  0.94960199  0.49309302     0.27200
H760        H  0.05718135  0.90604820  0.34140393     0.22000
H761        H  0.00925453  0.80570597  0.39397988     0.27300
H762        H  0.98616982  0.90376125  0.39515728     0.16100
C763        C  0.76957198  0.03505358  0.37791152    -0.11100
C764        C  0.76592016  0.03699190  0.40373252     0.15400
C765        C  0.74177612  0.04584157  0.41305541     0.02300
C766        C  0.72280009  0.05420731  0.39628462    -0.15500
C767        C  0.72805169  0.05519016  0.37050741    -0.10300
C768        C  0.75096046  0.04396880  0.36126817     0.09000
C769        C  0.78887841  0.03195868  0.41983382     0.10100
S770        S  0.73493629  0.04918792  0.44592126    -0.24600
H771        H  0.70555119  0.06317086  0.40362652     0.20300
S772        S  0.75976540  0.04427773  0.32869507    -0.30300
H773        H  0.78796244  0.02803062  0.37067421     0.10600
C774        C  0.79135623  0.01042162  0.43280146     0.03800
C775        C  0.81508226  0.00536033  0.44507913    -0.12600
C776        C  0.83664785  0.02120746  0.44421740    -0.08300
C777        C  0.83372180  0.04311900  0.43165642     0.07300
C778        C  0.80978085  0.04837688  0.42006822    -0.13400
S779        S  0.76496851  0.98880177  0.43233184    -0.30300
H780        H  0.81739294  0.98845593  0.45436401     0.11500
S781        S  0.86037784  0.06412519  0.42754428    -0.27400
H782        H  0.80791462  0.06488127  0.40987869     0.08800
H783        H  0.73376390  0.04436954  0.31989043     0.27200
H784        H  0.77684187  0.97237610  0.44843862     0.22000
H785        H  0.87946266  0.04695823  0.42166562     0.27300
H786        H  0.76116165  0.05113376  0.45403122     0.16100
C787        C  0.93304060  0.90917919  0.35806623    -0.11100
C788        C  0.91775456  0.90655125  0.37979856     0.15400
C789        C  0.90608965  0.88416132  0.38488001     0.02300
C790        C  0.91458726  0.86423617  0.37146751    -0.15500
C791        C  0.93296606  0.86661303  0.35196212    -0.10300
C792        C  0.93989295  0.88957228  0.34365161     0.09000
C793        C  0.91558072  0.92721609  0.39695412     0.10100
S794        S  0.88119352  0.87974208  0.40863458    -0.24600
H795        H  0.90867619  0.84669687  0.37766538     0.20300
S796        S  0.96177477  0.89431987  0.31748853    -0.30300
H797        H  0.94117820  0.92636970  0.35313112     0.10600
C798        C  0.92284309  0.92605693  0.42242111     0.03800
C799        C  0.91900962  0.94595594  0.43782646    -0.12600
C800        C  0.90977936  0.96733568  0.42791784    -0.08300
C801        C  0.90610148  0.96922952  0.40188502     0.07300
C802        C  0.90806237  0.94910455  0.38695928    -0.13400
S803        S  0.93800614  0.89980292  0.43518932    -0.30300
H804        H  0.92248071  0.94471808  0.45766547     0.11500
S805        S  0.89842063  0.99688435  0.38664599    -0.27400
H806        H  0.90374574  0.95058357  0.36726954     0.08800
H807        H  0.95491414  0.87316760  0.30520853     0.27200
H808        H  0.94097660  0.90834741  0.45962989     0.22000
H809        H  0.91043565  0.01150110  0.40458289     0.27300
H810        H  0.87246257  0.90336332  0.40912094     0.16100
C811        C  0.94100619  0.26424775  0.41474426    -0.11100
C812        C  0.92266677  0.28283469  0.41654308     0.15400
C813        C  0.90091014  0.28027816  0.43295666     0.02300
C814        C  0.89823257  0.25956414  0.44717396    -0.15500
C815        C  0.91551088  0.24031935  0.44404193    -0.10300
C816        C  0.93721936  0.24285695  0.42773540     0.09000
C817        C  0.92645644  0.30389988  0.40009093     0.10100
S818        S  0.87445827  0.30151734  0.43492292    -0.24600
H819        H  0.88096282  0.25747522  0.45902198     0.20300
S820        S  0.95843209  0.21809976  0.42116596    -0.30300
H821        H  0.95775160  0.26611300  0.40222455     0.10600
C822        C  0.93166881  0.32674326  0.40966596     0.03800
C823        C  0.93911000  0.34507270  0.39326387    -0.12600
C824        C  0.94363598  0.34060100  0.36779031    -0.08300
C825        C  0.93609374  0.31835777  0.35803393     0.07300
C826        C  0.92739266  0.30038687  0.37418684    -0.13400
S827        S  0.93297215  0.33179597  0.44288453    -0.30300
H828        H  0.94563863  0.36188234  0.40086670     0.11500
S829        S  0.94105186  0.31071443  0.32574585    -0.27400
H830        H  0.92312246  0.28296291  0.36666471     0.08800
H831        H  0.96641551  0.22624196  0.39750338     0.27200
H832        H  0.93729227  0.35642917  0.44175103     0.22000
H833        H  0.94314106  0.33405048  0.31682874     0.27300
H834        H  0.87680168  0.30998586  0.41037790     0.16100
C835        C  0.80323881  0.18821609  0.41901246    -0.11100
C836        C  0.80270087  0.16624443  0.40686855     0.15400
C837        C  0.82361706  0.15012535  0.41062603     0.02300
C838        C  0.84526674  0.15697043  0.42494045    -0.15500
C839        C  0.84613472  0.17915731  0.43675917    -0.10300
C840        C  0.82412746  0.19445859  0.43462529     0.09000
C841        C  0.78039176  0.16049129  0.39020296     0.10100
S842        S  0.82412095  0.12062982  0.39755107    -0.24600
H843        H  0.86184418  0.14499362  0.42636018     0.20300
S844        S  0.82097599  0.22181576  0.45179435    -0.30300
H845        H  0.78706758  0.20048603  0.41654978     0.10600
C846        C  0.75438159  0.15798122  0.39941837     0.03800
C847        C  0.73509825  0.14778754  0.38414279    -0.12600
C848        C  0.74160096  0.13923364  0.36035486    -0.08300
C849        C  0.76692331  0.14391523  0.35034514     0.07300
C850        C  0.78586559  0.15495672  0.36522642    -0.13400
S851        S  0.74643053  0.16459426  0.43153813    -0.30300
H852        H  0.71577858  0.14370686  0.39182744     0.11500
S853        S  0.77760728  0.13308383  0.32032953    -0.27400
H854        H  0.80573153  0.15733699  0.35799547     0.08800
H855        H  0.83600152  0.21432705  0.47227432     0.27200
H856        H  0.71917673  0.15993699  0.43003851     0.22000
H857        H  0.75252116  0.13073783  0.30973761     0.27300
H858        H  0.79665717  0.11691965  0.39852275     0.16100
C859        C  0.01481932  0.27105714  0.62765484    -0.11100
C860        C  0.03667370  0.28648621  0.62913424     0.15400
C861        C  0.06047300  0.28000224  0.61727172     0.02300
C862        C  0.06202920  0.25824167  0.60480844    -0.15500
C863        C  0.04107509  0.24167241  0.60553506    -0.10300
C864        C  0.01697448  0.24861897  0.61654721     0.09000
C865        C  0.03437367  0.30805461  0.64493637     0.10100
S866        S  0.09026289  0.29753203  0.61933674    -0.24600
H867        H  0.08075771  0.25314923  0.59658500     0.20300
S868        S  0.98921529  0.22886301  0.61908086    -0.30300
H869        H  0.99641926  0.27591564  0.63667717     0.10600
C870        C  0.03316263  0.33109081  0.63478849     0.03800
C871        C  0.02638005  0.35024613  0.65033120    -0.12600
C872        C  0.01938433  0.34658490  0.67548316    -0.08300
C873        C  0.02370404  0.32396994  0.68602354     0.07300
C874        C  0.03101975  0.30502380  0.67069240    -0.13400
S875        S  0.03677532  0.33564049  0.60163385    -0.30300
H876        H  0.02257603  0.36741450  0.64209487     0.11500
S877        S  0.01539294  0.31723341  0.71795636    -0.27400
H878        H  0.03236420  0.28740221  0.67864315     0.08800
H879        H  0.00388588  0.20975990  0.62846217     0.27200
H880        H  0.03217508  0.36021215  0.60172964     0.22000
H881        H  0.01886057  0.34041892  0.72685328     0.27300
H882        H  0.08560185  0.30603009  0.64357410     0.16100
C883        C  0.14985165  0.15252765  0.70395640    -0.11100
C884        C  0.15860092  0.15635343  0.67939390     0.15400
C885        C  0.18550354  0.15275683  0.67347645     0.02300
C886        C  0.20232289  0.14353379  0.69157351    -0.15500
C887        C  0.19253871  0.13645553  0.71495421    -0.10300
C888        C  0.16638917  0.14221997  0.72164695     0.09000
C889        C  0.13889657  0.16247840  0.66016139     0.10100
S890        S  0.19891560  0.15675690  0.64253697    -0.24600
H891        H  0.22226376  0.13874153  0.68620553     0.20300
S892        S  0.15206314  0.13392842  0.75123541    -0.30300
H893        H  0.12941353  0.15590297  0.70881596     0.10600
C894        C  0.11775908  0.14696469  0.65453273     0.03800
C895        C  0.09868629  0.15396044  0.63726442    -0.12600
C896        C  0.10090200  0.17565277  0.62453704    -0.08300
C897        C  0.12362546  0.18996509  0.62843523     0.07300
C898        C  0.14167333  0.18371911  0.64685833    -0.13400
S899        S  0.11505192  0.11810191  0.66906667    -0.30300
H900        H  0.08152356  0.14281192  0.63435036     0.11500
S901        S  0.13131739  0.21596455  0.61007250    -0.27400
H902        H  0.15834614  0.19529417  0.65052894     0.08800
H903        H  0.17602954  0.13175178  0.76402670     0.27200
H904        H  0.09458768  0.10933733  0.65397516     0.22000
H905        H  0.11798150  0.20828149  0.58860007     0.27300
H906        H  0.17665496  0.14790932  0.62998332     0.16100
C907        C  0.92217430  0.26815062  0.64237006    -0.11100
C908        C  0.90814768  0.28684988  0.63135916     0.15400
C909        C  0.89588626  0.28275336  0.60810726     0.02300
C910        C  0.89840952  0.26056399  0.59648533    -0.15500
C911        C  0.91091759  0.24148990  0.60841979    -0.10300
C912        C  0.92218804  0.24536872  0.63211144     0.09000
C913        C  0.90814800  0.31041270  0.64420569     0.10100
S914        S  0.87437563  0.30400764  0.59360417    -0.24600
H915        H  0.88801171  0.25738133  0.57919828     0.20300
S916        S  0.93277190  0.22161122  0.65227535    -0.30300
H917        H  0.93205066  0.27095394  0.65998066     0.10600
C918        C  0.90362737  0.31245542  0.67021395     0.03800
C919        C  0.91267148  0.33271719  0.68288500    -0.12600
C920        C  0.92507080  0.35128240  0.66989452    -0.08300
C921        C  0.92397475  0.35132174  0.64360307     0.07300
C922        C  0.91666477  0.33060332  0.63103618    -0.13400
S923        S  0.88784256  0.28878402  0.68756484    -0.30300
H924        H  0.91295134  0.33284636  0.70305547     0.11500
S925        S  0.93654315  0.37584415  0.62545037    -0.27400
H926        H  0.91968645  0.32972356  0.61107274     0.08800
H927        H  0.93808533  0.20479743  0.63371859     0.27200
H928        H  0.88804043  0.30013366  0.71089574     0.22000
H929        H  0.93545061  0.39246715  0.64497418     0.27300
H930        H  0.86536588  0.31412941  0.61602280     0.16100
C931        C  0.74944036  0.16751569  0.64704685    -0.11100
C932        C  0.77299797  0.17401804  0.65887818     0.15400
C933        C  0.77304322  0.17684281  0.68506718     0.02300
C934        C  0.75127086  0.16889813  0.69894872    -0.15500
C935        C  0.72950623  0.15847351  0.68711046    -0.10300
C936        C  0.72749387  0.16018439  0.66095614     0.09000
C937        C  0.79739315  0.17553163  0.64356330     0.10100
S938        S  0.80096187  0.18843646  0.70194788    -0.24600
H939        H  0.75281222  0.16799973  0.71906373     0.20300
S940        S  0.69917049  0.14907906  0.64438548    -0.30300
H941        H  0.74881375  0.16626886  0.62690997     0.10600
C942        C  0.81890074  0.16002929  0.64732045     0.03800
C943        C  0.84192373  0.16286924  0.63292695    -0.12600
C944        C  0.84332315  0.18004877  0.61408120    -0.08300
C945        C  0.82069912  0.19359133  0.60856840     0.07300
C946        C  0.79828394  0.19161356  0.62368446    -0.13400
S947        S  0.81693283  0.13625812  0.66987024    -0.30300
H948        H  0.85919618  0.15232929  0.63693289     0.11500
S949        S  0.81942237  0.21385858  0.58259280    -0.27400
H950        H  0.78136439  0.20270932  0.61992091     0.08800
H951        H  0.68215308  0.14872398  0.66520040     0.27200
H952        H  0.84170944  0.12622329  0.66459650     0.22000
H953        H  0.83849871  0.20211155  0.56805858     0.27300
H954        H  0.81180987  0.20137204  0.68193373     0.16100
C955        C  0.91288380  0.86846288  0.64037706    -0.11100
C956        C  0.91565721  0.89005553  0.65319645     0.15400
C957        C  0.92292198  0.88931673  0.67875318     0.02300
C958        C  0.92890207  0.86760158  0.68994818    -0.15500
C959        C  0.93023234  0.84671361  0.67591299    -0.10300
C960        C  0.92050949  0.84696309  0.65130456     0.09000
C961        C  0.91012175  0.91291617  0.64004767     0.10100
S962        S  0.92804416  0.91536053  0.69775894    -0.24600
H963        H  0.93675337  0.86765607  0.70870414     0.20300
S964        S  0.92062312  0.82079306  0.63209530    -0.30300
H965        H  0.90603004  0.86847083  0.62129744     0.10600
C966        C  0.92315698  0.92017250  0.61784005     0.03800
C967        C  0.91788482  0.94272715  0.60751665    -0.12600
C968        C  0.90097065  0.95891237  0.61952834    -0.08300
C969        C  0.88937118  0.95167805  0.64274047     0.07300
C970        C  0.89243241  0.92848081  0.65125820    -0.13400
S971        S  0.94691728  0.90114546  0.60271227    -0.30300
H972        H  0.92698282  0.94767789  0.58997820     0.11500
S973        S  0.87255535  0.97159675  0.66383601    -0.27400
H974        H  0.88206685  0.92278922  0.66794369     0.08800
H975        H  0.92207006  0.80458883  0.65196433     0.27200
H976        H  0.95695041  0.91819982  0.58597299     0.22000
H977        H  0.87481251  0.95788544  0.68563117     0.27300
H978        H  0.93684707  0.93025333  0.67843137     0.16100
C979        C  0.82755702  0.03672707  0.66372297    -0.11100
C980        C  0.80280501  0.04254966  0.65396443     0.15400
C981        C  0.79937374  0.04205318  0.62771123     0.02300
C982        C  0.81962188  0.03314791  0.61243777    -0.15500
C983        C  0.84416953  0.02729635  0.62252884    -0.10300
C984        C  0.84857852  0.03082154  0.64820290     0.09000
C985        C  0.78273768  0.05211318  0.67155155     0.10100
S986        S  0.77079328  0.05402131  0.61234449    -0.24600
H987        H  0.81652696  0.03144150  0.59256055     0.20300
S988        S  0.88089515  0.02969328  0.66213944    -0.30300
H989        H  0.83099758  0.03810224  0.68358497     0.10600
C990        C  0.75639728  0.04371888  0.67279842     0.03800
C991        C  0.73758316  0.05673461  0.68637250    -0.12600
C992        C  0.74528928  0.07657249  0.70031932    -0.08300
C993        C  0.77233932  0.08208458  0.70264691     0.07300
C994        C  0.79058965  0.07051627  0.68750966    -0.13400
S995        S  0.74673390  0.01669144  0.65726007    -0.30300
H996        H  0.71681813  0.05228965  0.68506894     0.11500
S997        S  0.78324485  0.10560240  0.72313277    -0.27400
H998        H  0.81092007  0.07654267  0.68735192     0.08800
H999        H  0.89487174  0.03781302  0.64112938     0.27200
H1000       H  0.72074980  0.01591141  0.66665762     0.22000
H1001       H  0.81051443  0.10236566  0.71944920     0.27300
H1002       H  0.76574552  0.07179611  0.63007424     0.16100
C1003       C  0.16190074  0.02954369  0.69897319    -0.11100
C1004       C  0.16542621  0.03241507  0.67319235     0.15400
C1005       C  0.18896644  0.04309966  0.66426198     0.02300
C1006       C  0.20738545  0.05201119  0.68131290    -0.15500
C1007       C  0.20208774  0.05197459  0.70706517    -0.10300
C1008       C  0.17985683  0.03924035  0.71594607     0.09000
C1009       C  0.14288279  0.02661087  0.65666201     0.10100
S1010       S  0.19548351  0.04845500  0.63162008    -0.24600
H1011       H  0.22408673  0.06214943  0.67428780     0.20300
S1012       S  0.17122476  0.03783528  0.74854039    -0.30300
H1013       H  0.14404458  0.02112171  0.70595227     0.10600
C1014       C  0.14341134  0.00735725  0.63999879     0.03800
C1015       C  0.12122508  0.00261303  0.62522047    -0.12600
C1016       C  0.09809630  0.01628708  0.62717898    -0.08300
C1017       C  0.09761270  0.03545439  0.64417785     0.07300
C1018       C  0.12008282  0.04060235  0.65831091    -0.13400
S1019       S  0.17184198  0.98823822  0.63829934    -0.30300
H1020       H  0.12162796  0.98779781  0.61240640     0.11500
S1021       S  0.06864134  0.05311863  0.64999301    -0.27400
H1022       H  0.11956432  0.05530984  0.67129677     0.08800
H1023       H  0.19688106  0.04134589  0.75754004     0.27200
H1024       H  0.16268217  0.97381024  0.61876999     0.22000
H1025       H  0.05053457  0.03424786  0.64786422     0.27300
H1026       H  0.16910630  0.05047197  0.62402854     0.16100
C1027       C  0.03755578  0.88367585  0.66814973    -0.11100
C1028       C  0.03595331  0.88331521  0.64205337     0.15400
C1029       C  0.03252693  0.86135267  0.62986108     0.02300
C1030       C  0.02761379  0.84084813  0.64410398    -0.15500
C1031       C  0.02401186  0.84228992  0.67006131    -0.10300
C1032       C  0.03146815  0.86347399  0.68225445     0.09000
C1033       C  0.03542240  0.90626411  0.62827963     0.10100
S1034       S  0.03058258  0.85988207  0.59629863    -0.24600
H1035       H  0.02192738  0.82460636  0.63477023     0.20300
S1036       S  0.02810157  0.86714415  0.71546140    -0.30300
H1037       H  0.04115270  0.90033490  0.67763107     0.10600
C1038       C  0.01540111  0.92321699  0.63266577     0.03800
C1039       C  0.01682235  0.94548619  0.62091047    -0.12600
C1040       C  0.03782894  0.95120668  0.60484122    -0.08300
C1041       C  0.05658221  0.93350425  0.59896403     0.07300
C1042       C  0.05541325  0.91147200  0.61094786    -0.13400
S1043       S  0.98863920  0.91706090  0.65414204    -0.30300
H1044       H  0.00275329  0.95913103  0.62579925     0.11500
S1045       S  0.08366193  0.93870636  0.57764755    -0.27400
H1046       H  0.07067524  0.89852614  0.60726462     0.08800
H1047       H  0.03375016  0.84348912  0.72131751     0.27200
H1048       H  0.97352783  0.93712823  0.64824099     0.22000
H1049       H  0.07137367  0.95703668  0.56433244     0.27300
H1050       H  0.02346861  0.83580010  0.59464470     0.16100
C1051       C  0.34112273  0.18144690  0.18737447    -0.11100
C1052       C  0.35555629  0.16726739  0.20360918     0.15400
C1053       C  0.38157219  0.16067759  0.19677845     0.02300
C1054       C  0.39246149  0.16889051  0.17416789    -0.15500
C1055       C  0.37735824  0.18201364  0.15710649    -0.10300
C1056       C  0.35100270  0.18779284  0.16404319     0.09000
C1057       C  0.34084432  0.15658065  0.22488594     0.10100
S1058       S  0.40139056  0.14074581  0.21506176    -0.24600
H1059       H  0.41259033  0.16418474  0.16948983     0.20300
S1060       S  0.32704950  0.19968310  0.14303973    -0.30300
H1061       H  0.32087398  0.18585741  0.19207058     0.10600
C1062       C  0.34775034  0.16019218  0.25003791     0.03800
C1063       C  0.33450624  0.14718166  0.26875453    -0.12600
C1064       C  0.31391921  0.13144235  0.26272991    -0.08300
C1065       C  0.30520220  0.13005914  0.23785955     0.07300
C1066       C  0.31893680  0.14226650  0.21927471    -0.13400
S1067       S  0.37363410  0.18083247  0.25818364    -0.30300
H1068       H  0.34125010  0.14805303  0.28783569     0.11500
S1069       S  0.27864392  0.11070927  0.22830482    -0.27400
H1070       H  0.31306061  0.13987568  0.20004519     0.08800
H1071       H  0.33325992  0.18264796  0.12483408     0.27200
H1072       H  0.37269353  0.17676897  0.28403582     0.22000
H1073       H  0.26497545  0.11113687  0.25114856     0.27300
H1074       H  0.38036503  0.12736951  0.22503357     0.16100
C1075       C  0.33581277  0.25902446  0.08257515    -0.11100
C1076       C  0.34919770  0.28054516  0.07848452     0.15400
C1077       C  0.37741667  0.28010429  0.07764641     0.02300
C1078       C  0.39080298  0.25892318  0.08282514    -0.15500
C1079       C  0.37696631  0.23766808  0.08637287    -0.10300
C1080       C  0.34927887  0.23762036  0.08401744     0.09000
C1081       C  0.33329525  0.30269160  0.07488943     0.10100
S1082       S  0.39803009  0.30538529  0.07012831    -0.24600
H1083       H  0.41213512  0.25904468  0.08427624     0.20300
S1084       S  0.33001145  0.21078619  0.08154754    -0.30300
H1085       H  0.31453300  0.25862166  0.08423839     0.10600
C1086       C  0.31078488  0.30357757  0.05910415     0.03800
C1087       C  0.29922420  0.32552052  0.05393721    -0.12600
C1088       C  0.31128753  0.34674057  0.06137955    -0.08300
C1089       C  0.33182090  0.34585673  0.07892303     0.07300
C1090       C  0.34145913  0.32381075  0.08661587    -0.13400
S1091       S  0.29872487  0.27806892  0.04193080    -0.30300
H1092       H  0.28358804  0.32645628  0.04028989     0.11500
S1093       S  0.34887784  0.37209534  0.08940652    -0.27400
H1094       H  0.35731622  0.32338030  0.10004383     0.08800
H1095       H  0.35098223  0.19591199  0.07463827     0.27200
H1096       H  0.27660157  0.28879848  0.03104253     0.22000
H1097       H  0.32949885  0.38831754  0.08198380     0.27300
H1098       H  0.38006366  0.31669364  0.05434451     0.16100
C1099       C  0.37680482  0.04567232  0.19401428    -0.11100
C1100       C  0.37871939  0.02824796  0.21261359     0.15400
C1101       C  0.39326300  0.00748747  0.20764306     0.02300
C1102       C  0.40457398  0.00430683  0.18396924    -0.15500
C1103       C  0.40084053  0.02086978  0.16465259    -0.10300
C1104       C  0.38715926  0.04207847  0.17007661     0.09000
C1105       C  0.36283689  0.03162314  0.23565936     0.10100
S1106       S  0.39709655  0.98381501  0.22997774    -0.24600
H1107       H  0.41507851  0.98801291  0.18010008     0.20300
S1108       S  0.37989577  0.06423914  0.14690973    -0.30300
H1109       H  0.36562168  0.06163312  0.19775171     0.10600
C1110       C  0.37402636  0.03965966  0.25809945     0.03800
C1111       C  0.35734980  0.04757233  0.27741566    -0.12600
C1112       C  0.32977672  0.04850760  0.27426039    -0.08300
C1113       C  0.31873820  0.03797125  0.25277161     0.07300
C1114       C  0.33533246  0.02967538  0.23382088    -0.13400
S1115       S  0.40937635  0.04261295  0.26094189    -0.30300
H1116       H  0.36590700  0.05614458  0.29353338     0.11500
S1117       S  0.28390050  0.03876262  0.24624127    -0.27400
H1118       H  0.32669926  0.02332635  0.21662024     0.08800
H1119       H  0.37272313  0.04788543  0.12833575     0.27200
H1120       H  0.40945247  0.04961746  0.28609235     0.22000
H1121       H  0.27574984  0.03511075  0.27093315     0.27300
H1122       H  0.37513708  0.98893401  0.24506588     0.16100
C1123       C  0.35461940  0.94097217  0.07399154    -0.11100
C1124       C  0.35649492  0.92141631  0.09017725     0.15400
C1125       C  0.37506940  0.92244935  0.10970514     0.02300
C1126       C  0.39105933  0.94262826  0.11242166    -0.15500
C1127       C  0.38813901  0.96273239  0.09708575    -0.10300
C1128       C  0.36951289  0.96171384  0.07759306     0.09000
C1129       C  0.34000286  0.89989605  0.08502454     0.10100
S1130       S  0.37822514  0.89945532  0.13286445    -0.24600
H1131       H  0.40496046  0.94319995  0.12769138     0.20300
S1132       S  0.36232175  0.98662746  0.05776253    -0.30300
H1133       H  0.34060599  0.94041341  0.05888440     0.10600
C1134       C  0.31236492  0.90125813  0.08155697     0.03800
C1135       C  0.29878949  0.88207323  0.07072122    -0.12600
C1136       C  0.31209690  0.86123327  0.06411263    -0.08300
C1137       C  0.33865569  0.85858701  0.07145367     0.07300
C1138       C  0.35251745  0.87804855  0.08104960    -0.13400
S1139       S  0.29443994  0.92774490  0.08974023    -0.30300
H1140       H  0.27844490  0.88422941  0.06508657     0.11500
S1141       S  0.35669205  0.83166116  0.06567541    -0.27400
H1142       H  0.37356458  0.87648405  0.08404502     0.08800
H1143       H  0.36282102  0.00352410  0.07701662     0.27200
H1144       H  0.26909001  0.91755462  0.08808752     0.22000
H1145       H  0.33426167  0.81698928  0.06355871     0.27300
H1146       H  0.35172056  0.89196286  0.13209548     0.16100
C1147       C  0.31397764  0.03280244  0.84164245    -0.11100
C1148       C  0.34132946  0.03645501  0.83947387     0.15400
C1149       C  0.35154142  0.04681102  0.81743214     0.02300
C1150       C  0.33414460  0.05497268  0.79919271    -0.15500
C1151       C  0.30673601  0.05484421  0.80338922    -0.10300
C1152       C  0.29656778  0.04246193  0.82428225     0.09000
C1153       C  0.35820880  0.03168210  0.86146071     0.10100
S1154       S  0.38617012  0.05320690  0.81298479    -0.24600
H1155       H  0.34210841  0.06489344  0.78352866     0.20300
S1156       S  0.26196515  0.04232978  0.83246042    -0.30300
H1157       H  0.30602489  0.02445336  0.85828477     0.10600
C1158       C  0.35436820  0.04404325  0.88411337     0.03800
C1159       C  0.37045828  0.03899090  0.90457850    -0.12600
C1160       C  0.39068907  0.02218611  0.90289606    -0.08300
C1161       C  0.39547542  0.01084829  0.87979116     0.07300
C1162       C  0.37887128  0.01530661  0.85956391    -0.13400
S1163       S  0.32916385  0.06649236  0.88709452    -0.30300
H1164       H  0.36670108  0.04757967  0.92227196     0.11500
S1165       S  0.42269155  0.99086076  0.87482550    -0.27400
H1166       H  0.38226641  0.00615541  0.84209977     0.08800
H1167       H  0.25233512  0.04466182  0.80819387     0.27200
H1168       H  0.33517865  0.07353161  0.91155509     0.22000
H1169       H  0.43911203  0.00077895  0.89316231     0.27300
H1170       H  0.39071514  0.06051073  0.83765201     0.16100
C1171       C  0.36850828  0.87143649  0.97004358    -0.11100
C1172       C  0.35811453  0.89348205  0.96328743     0.15400
C1173       C  0.33080553  0.89508177  0.95811922     0.02300
C1174       C  0.31399414  0.87614950  0.96448206    -0.15500
C1175       C  0.32404386  0.85550381  0.97541492    -0.10300
C1176       C  0.35173308  0.85226088  0.97550699     0.09000
C1177       C  0.37527249  0.91494296  0.96487230     0.10100
S1178       S  0.31601790  0.92164093  0.94586726    -0.24600
H1179       H  0.29282574  0.87877545  0.96391922     0.20300
S1180       S  0.36636436  0.82546818  0.98726216    -0.30300
H1181       H  0.38953833  0.86969694  0.97309519     0.10600
C1182       C  0.37037151  0.93282646  0.98274736     0.03800
C1183       C  0.38471619  0.95419368  0.98174068    -0.12600
C1184       C  0.40403102  0.95797437  0.96333019    -0.08300
C1185       C  0.41106504  0.93894046  0.94747927     0.07300
C1186       C  0.39646208  0.91776119  0.94820613    -0.13400
S1187       S  0.34535847  0.92872906  0.00648784    -0.30300
H1188       H  0.37956433  0.96860615  0.99414285     0.11500
S1189       S  0.43763148  0.94125773  0.92506700    -0.27400
H1190       H  0.40101919  0.90374872  0.93509355     0.08800
H1191       H  0.34353019  0.81138946  0.98461973     0.27200
H1192       H  0.34384481  0.95267221  0.01363396     0.22000
H1193       H  0.45131518  0.95946666  0.93751452     0.27300
H1194       H  0.33898139  0.93023230  0.93399947     0.16100
C1195       C  0.34055875  0.32136689  0.95806012    -0.11100
C1196       C  0.36755272  0.32074539  0.96389275     0.15400
C1197       C  0.37959870  0.34153794  0.97319235     0.02300
C1198       C  0.36393127  0.36119894  0.97931864    -0.15500
C1199       C  0.33616923  0.36014968  0.97778633    -0.10300
C1200       C  0.32472212  0.34061360  0.96519646     0.09000
C1201       C  0.38056342  0.29706526  0.96550319     0.10100
S1202       S  0.41404859  0.34277879  0.98128057    -0.24600
H1203       H  0.37304560  0.37592816  0.98904629     0.20300
S1204       S  0.28960570  0.33763920  0.96080654    -0.30300
H1205       H  0.33118341  0.30562650  0.95054217     0.10600
C1206       C  0.37640493  0.28246249  0.98654866     0.03800
C1207       C  0.38556830  0.25895662  0.98664246    -0.12600
C1208       C  0.39881302  0.24951515  0.96594382    -0.08300
C1209       C  0.40478402  0.26478005  0.94562724     0.07300
C1210       C  0.39530119  0.28818011  0.94543448    -0.13400
S1211       S  0.35763330  0.29335325  0.01262102    -0.30300
H1212       H  0.38059943  0.24732184  0.00204859     0.11500
S1213       S  0.42334138  0.25490846  0.91886869    -0.27400
H1214       H  0.39886381  0.29931607  0.92929482     0.08800
H1215       H  0.28242491  0.34361493  0.98531852     0.27200
H1216       H  0.35772633  0.27215552  0.02639216     0.22000
H1217       H  0.43650538  0.23651322  0.93131499     0.27300
H1218       H  0.42254267  0.32663077  0.96306406     0.16100
C1219       C  0.31940253  0.18285917  0.89836354    -0.11100
C1220       C  0.32835775  0.16474924  0.88260090     0.15400
C1221       C  0.35239406  0.15332657  0.88820355     0.02300
C1222       C  0.36782854  0.16145580  0.90803251    -0.15500
C1223       C  0.35927854  0.17999210  0.92354474    -0.10300
C1224       C  0.33404361  0.18998528  0.91918188     0.09000
C1225       C  0.31263899  0.15809171  0.86031062     0.10100
S1226       S  0.36435865  0.12809143  0.87091523    -0.24600
H1227       H  0.38683791  0.15331055  0.91120606     0.20300
S1228       S  0.31873010  0.21101845  0.93998594    -0.30300
H1229       H  0.30063229  0.19124359  0.89463659     0.10600
C1230       C  0.28787356  0.14666985  0.86251117     0.03800
C1231       C  0.27612317  0.13676977  0.84124208    -0.12600
C1232       C  0.28894408  0.13748966  0.81797232    -0.08300
C1233       C  0.31250576  0.15076718  0.81547594     0.07300
C1234       C  0.32398843  0.16105328  0.83656831    -0.13400
S1235       S  0.27289991  0.14187379  0.89273819    -0.30300
H1236       H  0.25844614  0.12602980  0.84323170     0.11500
S1237       S  0.33047955  0.15253015  0.78645213    -0.27400
H1238       H  0.34286024  0.17005251  0.83473531     0.08800
H1239       H  0.33078365  0.20235634  0.96168758     0.27200
H1240       H  0.24976636  0.13069174  0.88421910     0.22000
H1241       H  0.30847023  0.14877540  0.77110096     0.27300
H1242       H  0.33933493  0.11875822  0.86512381     0.16100
C1243       C  0.58404082  0.33544350  0.07413183    -0.11100
C1244       C  0.59960087  0.31720285  0.08388671     0.15400
C1245       C  0.62729091  0.32071387  0.08522360     0.02300
C1246       C  0.63896637  0.34001047  0.07277986    -0.15500
C1247       C  0.62338711  0.35658816  0.06020673    -0.10300
C1248       C  0.59563156  0.35544102  0.06315035     0.09000
C1249       C  0.58725749  0.29336063  0.08754891     0.10100
S1250       S  0.64878415  0.30025124  0.10092264    -0.24600
H1251       H  0.66027448  0.34086865  0.07102260     0.20300
S1252       S  0.57400566  0.37717880  0.04958133    -0.30300
H1253       H  0.56280909  0.33328016  0.07317111     0.10600
C1254       C  0.56480425  0.28955191  0.10282004     0.03800
C1255       C  0.55340297  0.26674226  0.10421799    -0.12600
C1256       C  0.56418035  0.24754719  0.09097844    -0.08300
C1257       C  0.58676209  0.25146273  0.07593727     0.07300
C1258       C  0.59757777  0.27422583  0.07396842    -0.13400
S1259       S  0.55201152  0.31311085  0.12214000    -0.30300
H1260       H  0.53702894  0.26345351  0.11683473     0.11500
S1261       S  0.60469668  0.22766746  0.06127632    -0.27400
H1262       H  0.61465292  0.27694477  0.06202023     0.08800
H1263       H  0.59312302  0.39532178  0.04801619     0.27200
H1264       H  0.53042440  0.30037012  0.13203565     0.22000
H1265       H  0.58231637  0.21468490  0.05408766     0.27300
H1266       H  0.62930550  0.29134888  0.11727759     0.16100
C1267       C  0.62320689  0.18324057  0.17425851    -0.11100
C1268       C  0.61103859  0.16806227  0.19158060     0.15400
C1269       C  0.58549013  0.15908244  0.18645279     0.02300
C1270       C  0.57217268  0.16661264  0.16510083    -0.15500
C1271       C  0.58424674  0.18194962  0.14779196    -0.10300
C1272       C  0.61064544  0.18942836  0.15205892     0.09000
C1273       C  0.62533738  0.16156075  0.21468116     0.10100
S1274       S  0.56895763  0.13762925  0.20613510    -0.24600
H1275       H  0.55217388  0.16041978  0.16200421     0.20300
S1276       S  0.63008686  0.20567031  0.12943429    -0.30300
H1277       H  0.64298640  0.18981038  0.17775579     0.10600
C1278       C  0.64905093  0.14851312  0.21386375     0.03800
C1279       C  0.65905774  0.13890494  0.23594168    -0.12600
C1280       C  0.64544069  0.14140465  0.25861596    -0.08300
C1281       C  0.62337139  0.15648347  0.25981478     0.07300
C1282       C  0.61371610  0.16662947  0.23789750    -0.13400
S1283       S  0.66468043  0.14110616  0.18456110    -0.30300
H1284       H  0.67568501  0.12692577  0.23505854     0.11500
S1285       S  0.60505877  0.16115489  0.28825456    -0.27400
H1286       H  0.59589320  0.17715307  0.23870039     0.08800
H1287       H  0.61825644  0.19505394  0.10854982     0.27200
H1288       H  0.68804797  0.13193491  0.19472392     0.22000
H1289       H  0.62589369  0.15563440  0.30439019     0.27300
H1290       H  0.59196495  0.12564505  0.21336890     0.16100
C1291       C  0.57363654  0.28245963  0.97910155    -0.11100
C1292       C  0.56833130  0.29838975  0.95965902     0.15400
C1293       C  0.54880162  0.29224700  0.94204206     0.02300
C1294       C  0.53582519  0.27020011  0.94396186    -0.15500
C1295       C  0.54295274  0.25336780  0.96215686    -0.10300
C1296       C  0.56147421  0.26016479  0.98038401     0.09000
C1297       C  0.58494313  0.32029299  0.95818345     0.10100
S1298       S  0.54134422  0.31041864  0.91533589    -0.24600
H1299       H  0.52224205  0.26501454  0.92939001     0.20300
S1300       S  0.57349369  0.23977149  0.00334312    -0.30300
H1301       H  0.58851804  0.28697452  0.99276732     0.10600
C1302       C  0.57480685  0.34297845  0.96358263     0.03800
C1303       C  0.59239808  0.36175785  0.96871838    -0.12600
C1304       C  0.61976890  0.35780881  0.97062679    -0.08300
C1305       C  0.62983702  0.33589760  0.96217890     0.07300
C1306       C  0.61238863  0.31756631  0.95579482    -0.13400
S1307       S  0.53977612  0.34718672  0.96803426    -0.30300
H1308       H  0.58458862  0.37835462  0.97562952     0.11500
S1309       S  0.66436322  0.32855240  0.96419633    -0.27400
H1310       H  0.62032106  0.30023682  0.95142078     0.08800
H1311       H  0.54833447  0.23572210  0.01371716     0.27200
H1312       H  0.54077744  0.37184325  0.97185582     0.22000
H1313       H  0.67382418  0.35195357  0.96409211     0.27300
H1314       H  0.56609194  0.32167345  0.91353619     0.16100
C1315       C  0.60990911  0.19804131  0.87988796    -0.11100
C1316       C  0.60017559  0.18160816  0.86262423     0.15400
C1317       C  0.57768223  0.16779608  0.86909812     0.02300
C1318       C  0.56402893  0.17249854  0.89131118    -0.15500
C1319       C  0.57329030  0.18954201  0.90820654    -0.10300
C1320       C  0.59740155  0.20150566  0.90284688     0.09000
C1321       C  0.61550648  0.17754356  0.83935032     0.10100
S1322       S  0.56589801  0.14333333  0.85048170    -0.24600
H1323       H  0.54599385  0.16279436  0.89539294     0.20300
S1324       S  0.61400164  0.22067292  0.92478605    -0.30300
H1325       H  0.62787295  0.20782862  0.87569842     0.10600
C1326       C  0.60399238  0.17879633  0.81548117     0.03800
C1327       C  0.61722804  0.16860728  0.79508638    -0.12600
C1328       C  0.64220217  0.15842822  0.79809781    -0.08300
C1329       C  0.65545107  0.16112975  0.82095635     0.07300
C1330       C  0.64184907  0.17034763  0.84148121    -0.13400
S1331       S  0.57205346  0.19221408  0.81124363    -0.30300
H1332       H  0.60719294  0.16658974  0.77745274     0.11500
S1333       S  0.68834463  0.14945188  0.82481893    -0.27400
H1334       H  0.65105766  0.17028984  0.85963173     0.08800
H1335       H  0.60420470  0.20924889  0.94626248     0.27200
H1336       H  0.57188371  0.19072405  0.78507887     0.22000
H1337       H  0.69015453  0.15336033  0.85063358     0.27300
H1338       H  0.59083039  0.13640374  0.84152638     0.16100
C1339       C  0.63180545  0.90263463  0.96138559    -0.11100
C1340       C  0.60442710  0.89849694  0.96255460     0.15400
C1341       C  0.59526714  0.87498818  0.96583297     0.02300
C1342       C  0.61345542  0.85686290  0.97045023    -0.15500
C1343       C  0.64033058  0.86206727  0.97425082    -0.10300
C1344       C  0.64978348  0.88484343  0.96766809     0.09000
C1345       C  0.58634949  0.91928289  0.96273002     0.10100
S1346       S  0.56068125  0.86743366  0.96783045    -0.24600
H1347       H  0.60595536  0.83948713  0.97560170     0.20300
S1348       S  0.68389625  0.89343319  0.97125901    -0.30300
H1349       H  0.63909875  0.92045679  0.95799145     0.10600
C1350       C  0.58824858  0.93685461  0.98141770     0.03800
C1351       C  0.57282977  0.95740788  0.97989125    -0.12600
C1352       C  0.55552073  0.96093491  0.95996511    -0.08300
C1353       C  0.55182448  0.94229675  0.94258609     0.07300
C1354       C  0.56751848  0.92192830  0.94390501    -0.13400
S1355       S  0.61082065  0.93346181  0.00702040    -0.30300
H1356       H  0.57572453  0.97155242  0.99325309     0.11500
S1357       S  0.52837505  0.94411822  0.91749230    -0.27400
H1358       H  0.56551898  0.90833394  0.92977860     0.08800
H1359       H  0.69414887  0.87044574  0.97291586     0.27200
H1360       H  0.61111130  0.95744395  0.01404858     0.22000
H1361       H  0.51261138  0.96175756  0.92847711     0.27300
H1362       H  0.55307428  0.88790941  0.98090672     0.16100
C1363       C  0.60891803  0.04970972  0.81588519    -0.11100
C1364       C  0.61884843  0.05170106  0.84018548     0.15400
C1365       C  0.64339170  0.06322042  0.84393160     0.02300
C1366       C  0.65663484  0.07332970  0.82368304    -0.15500
C1367       C  0.64491518  0.07404347  0.80013325    -0.10300
C1368       C  0.62133932  0.06131384  0.79593763     0.09000
C1369       C  0.60288999  0.04265941  0.86142857     0.10100
S1370       S  0.65724596  0.06851559  0.87433530    -0.24600
H1371       H  0.67439053  0.08365350  0.82703250     0.20300
S1372       S  0.60457999  0.06178696  0.76640003    -0.30300
H1373       H  0.59042410  0.04046118  0.81276429     0.10600
C1374       C  0.57753302  0.05171226  0.86693984     0.03800
C1375       C  0.56400717  0.04370248  0.88827318    -0.12600
C1376       C  0.57577845  0.02773648  0.90486421    -0.08300
C1377       C  0.60171655  0.01964232  0.89976057     0.07300
C1378       C  0.61431172  0.02625660  0.87764033    -0.13400
S1379       S  0.56285353  0.07434945  0.84767678    -0.30300
H1380       H  0.54424597  0.04997592  0.89214955     0.11500
S1381       S  0.62083419  0.00242516  0.92146378    -0.27400
H1382       H  0.63395505  0.01963622  0.87372606     0.08800
H1383       H  0.62695128  0.06719432  0.75184430     0.27200
H1384       H  0.54010709  0.07788733  0.86233653     0.22000
H1385       H  0.60990863  0.01286090  0.94295054     0.27300
H1386       H  0.63294105  0.07292787  0.88622463     0.16100
C1387       C  0.59212157  0.04925744  0.18610321    -0.11100
C1388       C  0.58584023  0.03488715  0.20670840     0.15400
C1389       C  0.56729046  0.01635843  0.20397385     0.02300
C1390       C  0.55612919  0.01213055  0.18059967    -0.15500
C1391       C  0.56362309  0.02557867  0.15963576    -0.10300
C1392       C  0.58176379  0.04447954  0.16254132     0.09000
C1393       C  0.59926695  0.03981942  0.23058186     0.10100
S1394       S  0.55798930  0.99685976  0.22920946    -0.24600
H1395       H  0.54238919  0.99748232  0.17845734     0.20300
S1396       S  0.59399590  0.06200489  0.13677254    -0.30300
H1397       H  0.60616895  0.06368084  0.18820657     0.10600
C1398       C  0.62684229  0.03727514  0.23284670     0.03800
C1399       C  0.63968551  0.04699101  0.25357703    -0.12600
C1400       C  0.62540175  0.05925395  0.27191205    -0.08300
C1401       C  0.59752236  0.05861031  0.27131226     0.07300
C1402       C  0.58471676  0.04928029  0.25046305    -0.13400
S1403       S  0.64586918  0.02326377  0.20843973    -0.30300
H1404       H  0.66105667  0.04756981  0.25396163     0.11500
S1405       S  0.57763706  0.07247865  0.29507623    -0.27400
H1406       H  0.56345427  0.05074214  0.24904534     0.08800
H1407       H  0.59625555  0.04290160  0.12007021     0.27200
H1408       H  0.67011251  0.02336495  0.22108775     0.22000
H1409       H  0.59748036  0.07287443  0.31330993     0.27300
H1410       H  0.58250571  0.99743194  0.24134164     0.16100
C1411       C  0.60138906  0.93985747  0.07345475    -0.11100
C1412       C  0.59680352  0.92025596  0.08911940     0.15400
C1413       C  0.57868377  0.92267356  0.10905606     0.02300
C1414       C  0.56433618  0.94375713  0.11162118    -0.15500
C1415       C  0.56887284  0.96340494  0.09586253    -0.10300
C1416       C  0.58819967  0.96140861  0.07691911     0.09000
C1417       C  0.61136428  0.89783910  0.08381482     0.10100
S1418       S  0.57442298  0.90041157  0.13295325    -0.24600
H1419       H  0.55053503  0.94536693  0.12703065     0.20300
S1420       S  0.59862037  0.98623548  0.05805172    -0.30300
H1421       H  0.61624052  0.93862476  0.05897462     0.10600
C1422       C  0.59817054  0.87679219  0.07664625     0.03800
C1423       C  0.61286523  0.85756589  0.06746258    -0.12600
C1424       C  0.64028354  0.85943161  0.06366582    -0.08300
C1425       C  0.65358102  0.87969807  0.07278092     0.07300
C1426       C  0.63907994  0.89851356  0.08287361    -0.13400
S1427       S  0.56255294  0.87557234  0.07524901    -0.30300
H1428       H  0.60258952  0.84242514  0.05967720     0.11500
S1429       S  0.68851774  0.88424115  0.06810816    -0.27400
H1430       H  0.64938859  0.91454941  0.08836589     0.08800
H1431       H  0.59917242  0.00256075  0.07785575     0.27200
H1432       H  0.56040896  0.85138254  0.06918489     0.22000
H1433       H  0.69509644  0.86010293  0.06791607     0.27300
H1434       H  0.59945304  0.89004848  0.13024304     0.16100
C1435       C  0.01944545  0.49178073  0.20487183    -0.11100
C1436       C  0.04171260  0.49410253  0.22029518     0.15400
C1437       C  0.06258979  0.50906305  0.21233163     0.02300
C1438       C  0.06086714  0.52085111  0.18936075    -0.15500
C1439       C  0.03957406  0.51703285  0.17300964    -0.10300
C1440       C  0.01827785  0.50276824  0.18137004     0.09000
C1441       C  0.04287246  0.47958777  0.24365636     0.10100
S1442       S  0.09307695  0.51219670  0.22926998    -0.24600
H1443       H  0.07766673  0.53125099  0.18300006     0.20300
S1444       S  0.99061775  0.49574407  0.16178046    -0.30300
H1445       H  0.00320709  0.48056490  0.21084724     0.10600
C1446       C  0.04248691  0.48983079  0.26766820     0.03800
C1447       C  0.03954786  0.47516659  0.28880909    -0.12600
C1448       C  0.03471654  0.45062979  0.28638553    -0.08300
C1449       C  0.03833012  0.44023393  0.26263459     0.07300
C1450       C  0.04231337  0.45476671  0.24161845    -0.13400
S1451       S  0.04158763  0.52163644  0.27135565    -0.30300
H1452       H  0.03626916  0.48327854  0.30683555     0.11500
S1453       S  0.03304587  0.40881009  0.25830348    -0.27400
H1454       H  0.04304634  0.44687816  0.22324159     0.08800
H1455       H  0.98508810  0.51953996  0.15631441     0.27200
H1456       H  0.04398794  0.52185221  0.29745112     0.22000
H1457       H  0.04138653  0.40791781  0.23327835     0.27300
H1458       H  0.09277919  0.48946309  0.23999570     0.16100
C1459       C  0.12321465  0.47632176  0.07367345    -0.11100
C1460       C  0.14590614  0.47832427  0.08854719     0.15400
C1461       C  0.14503215  0.49287993  0.10991615     0.02300
C1462       C  0.12176376  0.50485417  0.11598024    -0.15500
C1463       C  0.09877689  0.50228843  0.10165401    -0.10300
C1464       C  0.09957612  0.48783972  0.08015711     0.09000
C1465       C  0.17050775  0.46611467  0.08046619     0.10100
S1466       S  0.17264455  0.49638760  0.13067520    -0.24600
H1467       H  0.12138397  0.51590630  0.13249101     0.20300
S1468       S  0.07033066  0.48281908  0.06173617    -0.30300
H1469       H  0.12403411  0.46545106  0.05706746     0.10600
C1470       C  0.17152269  0.44126713  0.07728462     0.03800
C1471       C  0.19367263  0.43101955  0.06573381    -0.12600
C1472       C  0.21509894  0.44507572  0.05793667    -0.08300
C1473       C  0.21532438  0.46948241  0.06386754     0.07300
C1474       C  0.19286906  0.47982990  0.07456304    -0.13400
S1475       S  0.14429634  0.42266785  0.08718334    -0.30300
H1476       H  0.19343654  0.41236196  0.06099908     0.11500
S1477       S  0.24345172  0.48780172  0.05565778    -0.27400
H1478       H  0.19224251  0.49882654  0.07735630     0.08800
H1479       H  0.08243987  0.46924773  0.04293261     0.27200
H1480       H  0.15664848  0.40084283  0.08241104     0.22000
H1481       H  0.23337316  0.50926853  0.06493596     0.27300
H1482       H  0.18247572  0.47331733  0.12743049     0.16100
C1483       C  0.16182718  0.51011880  0.92763111    -0.11100
C1484       C  0.16363718  0.49405121  0.94747054     0.15400
C1485       C  0.14205925  0.49192518  0.96427511     0.02300
C1486       C  0.11850704  0.50409327  0.95958309    -0.15500
C1487       C  0.11612274  0.51917219  0.93892797    -0.10300
C1488       C  0.13857478  0.52292039  0.92343276     0.09000
C1489       C  0.18805871  0.47970679  0.95047266     0.10100
S1490       S  0.14315788  0.47359942  0.99181953    -0.24600
H1491       H  0.10161282  0.50111782  0.97168887     0.20300
S1492       S  0.13869364  0.54371562  0.89787440    -0.30300
H1493       H  0.17853405  0.51249597  0.91515314     0.10600
C1494       C  0.18768042  0.45478118  0.94797805     0.03800
C1495       C  0.20870974  0.44138049  0.95746974    -0.12600
C1496       C  0.22991127  0.45247629  0.96961676    -0.08300
C1497       C  0.23216114  0.47746807  0.96822682     0.07300
C1498       C  0.21117073  0.49084083  0.95885618    -0.13400
S1499       S  0.15931241  0.43995728  0.93485598    -0.30300
H1500       H  0.20687118  0.42226658  0.95851573     0.11500
S1501       S  0.25917596  0.49321689  0.98252914    -0.27400
H1502       H  0.21192813  0.51000259  0.96017998     0.08800
H1503       H  0.11979396  0.55899295  0.90837051     0.27200
H1504       H  0.16975327  0.41690566  0.93556646     0.22000
H1505       H  0.27637403  0.47372600  0.98325944     0.27300
H1506       H  0.17018401  0.47704773  0.99638068     0.16100
C1507       C  0.03106712  0.48254687  0.78685296    -0.11100
C1508       C  0.03710825  0.47271790  0.81013210     0.15400
C1509       C  0.03664221  0.44772566  0.81275501     0.02300
C1510       C  0.02706050  0.43353411  0.79327123    -0.15500
C1511       C  0.01824317  0.44366819  0.77094915    -0.10300
C1512       C  0.02217057  0.46829277  0.76720609     0.09000
C1513       C  0.04032600  0.48885561  0.83198018     0.10100
S1514       S  0.04607616  0.43304494  0.84117714    -0.24600
H1515       H  0.02387162  0.41477061  0.79655102     0.20300
S1516       S  0.01187458  0.48296922  0.73906226    -0.30300
H1517       H  0.03150022  0.50162653  0.78447419     0.10600
C1518       C  0.06090424  0.50570694  0.83342597     0.03800
C1519       C  0.06342040  0.51970381  0.85496951    -0.12600
C1520       C  0.04633466  0.51677609  0.87561774    -0.08300
C1521       C  0.02520208  0.50043353  0.87367259     0.07300
C1522       C  0.02221051  0.48711909  0.85182337    -0.13400
S1523       S  0.08545270  0.50785761  0.80897304    -0.30300
H1524       H  0.07990043  0.53192139  0.85648672     0.11500
S1525       S  0.00281022  0.49410578  0.89906328    -0.27400
H1526       H  0.00642279  0.47423756  0.85079486     0.08800
H1527       H  0.01226561  0.46255982  0.72402875     0.27200
H1528       H  0.09919484  0.52745554  0.81875257     0.22000
H1529       H  0.02259280  0.49272844  0.91727630     0.27300
H1530       H  0.06386372  0.45071442  0.84903987     0.16100
C1531       C  0.74422134  0.49046679  0.95570649    -0.11100
C1532       C  0.76747137  0.47832168  0.94959040     0.15400
C1533       C  0.76728667  0.45325700  0.95026697     0.02300
C1534       C  0.74527141  0.44116103  0.96008293    -0.15500
C1535       C  0.72323749  0.45354902  0.96915143    -0.10300
C1536       C  0.72206809  0.47831242  0.96511569     0.09000
C1537       C  0.79237362  0.49207291  0.94566829     0.10100
S1538       S  0.79542643  0.43590607  0.94084455    -0.24600
H1539       H  0.74656936  0.42221628  0.96320665     0.20300
S1540       S  0.69418376  0.49561263  0.97522781    -0.30300
H1541       H  0.74394149  0.50965870  0.95480302     0.10600
C1542       C  0.79664289  0.50612163  0.92432098     0.03800
C1543       C  0.82106060  0.51766992  0.92097220    -0.12600
C1544       C  0.84183463  0.51495003  0.93810779    -0.08300
C1545       C  0.83721060  0.50122181  0.95979289     0.07300
C1546       C  0.81246959  0.49042104  0.96353753    -0.13400
S1547       S  0.77171319  0.50801294  0.90050122    -0.30300
H1548       H  0.82445817  0.52811841  0.90431447     0.11500
S1549       S  0.86247643  0.49518737  0.98240503    -0.27400
H1550       H  0.80921578  0.47969487  0.98004837     0.08800
H1551       H  0.67622479  0.47650601  0.97611453     0.27200
H1552       H  0.78639689  0.52205353  0.88369110     0.22000
H1553       H  0.88268511  0.49164585  0.96473001     0.27300
H1554       H  0.80520117  0.45233454  0.92330100     0.16100
C1555       C  0.91672642  0.48460684  0.78386746    -0.11100
C1556       C  0.90997403  0.47468179  0.80700058     0.15400
C1557       C  0.90483329  0.45001927  0.80841582     0.02300
C1558       C  0.91227606  0.43543420  0.78846479    -0.15500
C1559       C  0.92385551  0.44522647  0.76697508    -0.10300
C1560       C  0.92290047  0.47006234  0.76359192     0.09000
C1561       C  0.91144903  0.48991101  0.82955355     0.10100
S1562       S  0.89124942  0.43601997  0.83591563    -0.24600
H1563       H  0.91223064  0.41637372  0.79103165     0.20300
S1564       S  0.93510969  0.48401405  0.73554643    -0.30300
H1565       H  0.91946992  0.50360917  0.78216746     0.10600
C1566       C  0.92943748  0.48516156  0.84899853     0.03800
C1567       C  0.92864054  0.49885129  0.87087243    -0.12600
C1568       C  0.91057482  0.51744541  0.87345698    -0.08300
C1569       C  0.89449153  0.52354080  0.85297824     0.07300
C1570       C  0.89498796  0.50969559  0.83138829    -0.13400
S1571       S  0.95314653  0.46148054  0.84614506    -0.30300
H1572       H  0.94084679  0.49412670  0.88658360     0.11500
S1573       S  0.87129324  0.54768345  0.85419283    -0.27400
H1574       H  0.88174583  0.51388029  0.81624337     0.08800
H1575       H  0.93361211  0.46352970  0.72066563     0.27200
H1576       H  0.96192060  0.46204657  0.87094123     0.22000
H1577       H  0.88469130  0.56070967  0.87258732     0.27300
H1578       H  0.87912290  0.45647120  0.84551588     0.16100
C1579       C  0.93129524  0.50442707  0.20904086    -0.11100
C1580       C  0.92676615  0.47974225  0.21056274     0.15400
C1581       C  0.91625181  0.46801481  0.18962976     0.02300
C1582       C  0.91315193  0.48039260  0.16742131    -0.15500
C1583       C  0.91625244  0.50515992  0.16591560    -0.10300
C1584       C  0.92526983  0.51734123  0.18727544     0.09000
C1585       C  0.93375886  0.46638735  0.23362308     0.10100
S1586       S  0.90468286  0.43763109  0.19021698    -0.24600
H1587       H  0.90674230  0.47060506  0.15131614     0.20300
S1588       S  0.92855533  0.54912288  0.18827744    -0.30300
H1589       H  0.93900682  0.51377055  0.22507735     0.10600
C1590       C  0.95079539  0.44661773  0.23271877     0.03800
C1591       C  0.95580573  0.43378120  0.25450658    -0.12600
C1592       C  0.94730829  0.44195639  0.27792648    -0.08300
C1593       C  0.93060576  0.46190995  0.27895628     0.07300
C1594       C  0.92343943  0.47350468  0.25682413    -0.13400
S1595       S  0.96907196  0.43943449  0.20464652    -0.30300
H1596       H  0.96973200  0.41928084  0.25384009     0.11500
S1597       S  0.92001688  0.47462753  0.30811196    -0.27400
H1598       H  0.91058001  0.48876892  0.25781103     0.08800
H1599       H  0.90661098  0.55374902  0.17313664     0.27200
H1600       H  0.98505123  0.42164615  0.21489524     0.22000
H1601       H  0.92483727  0.45441805  0.32270599     0.27300
H1602       H  0.89810833  0.43719553  0.21570080     0.16100
C1603       C  0.82058524  0.46568837  0.09971832    -0.11100
C1604       C  0.80280649  0.47736355  0.08419361     0.15400
C1605       C  0.80927231  0.50047202  0.07566512     0.02300
C1606       C  0.83228535  0.51178361  0.08422967    -0.15500
C1607       C  0.85036681  0.49988315  0.09954856    -0.10300
C1608       C  0.84483171  0.47586631  0.10587535     0.09000
C1609       C  0.77821898  0.46468681  0.07668376     0.10100
S1610       S  0.78960472  0.51609404  0.05314135    -0.24600
H1611       H  0.83620094  0.52990740  0.07858355     0.20300
S1612       S  0.86857572  0.45602698  0.11926076    -0.30300
H1613       H  0.81615092  0.44784162  0.10603891     0.10600
C1614       C  0.77905974  0.44237604  0.06464968     0.03800
C1615       C  0.75568569  0.43231458  0.05562568    -0.12600
C1616       C  0.73171099  0.44454121  0.05706022    -0.08300
C1617       C  0.73040973  0.46571384  0.07093904     0.07300
C1618       C  0.75358375  0.47537858  0.08094731    -0.13400
S1619       S  0.80999539  0.42806006  0.05729625    -0.30300
H1620       H  0.75666354  0.41637107  0.04440915     0.11500
S1621       S  0.70026109  0.48224274  0.07438416    -0.27400
H1622       H  0.75262727  0.49206860  0.09088873     0.08800
H1623       H  0.89047871  0.46676121  0.10749513     0.27200
H1624       H  0.79916134  0.40591650  0.05073473     0.22000
H1625       H  0.68307841  0.46337163  0.06878209     0.27300
H1626       H  0.78201708  0.49576433  0.03972564     0.16100
C1627       C  0.06186286  0.68994225  0.21409509    -0.11100
C1628       C  0.03736027  0.69918397  0.22111555     0.15400
C1629       C  0.01508772  0.69386530  0.20625606     0.02300
C1630       C  0.01846738  0.68286514  0.18293339    -0.15500
C1631       C  0.04357036  0.67590736  0.17458156    -0.10300
C1632       C  0.06499471  0.67765264  0.19155856     0.09000
C1633       C  0.03627288  0.71756733  0.24106810     0.10100
S1634       S  0.98203993  0.70185502  0.21535365    -0.24600
H1635       H  0.00167663  0.68117485  0.17063561     0.20300
S1636       S  0.09728262  0.66570917  0.18496435    -0.30300
H1637       H  0.07890715  0.69316739  0.22574854     0.10600
C1638       C  0.03092420  0.71213170  0.26624530     0.03800
C1639       C  0.02394552  0.73053043  0.28280804    -0.12600
C1640       C  0.02259536  0.75424713  0.27463444    -0.08300
C1641       C  0.03250001  0.75972858  0.25062142     0.07300
C1642       C  0.03865231  0.74141540  0.23398495    -0.13400
S1643       S  0.03005026  0.68166442  0.27644411    -0.30300
H1644       H  0.01621186  0.72611573  0.30109154     0.11500
S1645       S  0.03305584  0.78964223  0.23879726    -0.27400
H1646       H  0.04371282  0.74576749  0.21486654     0.08800
H1647       H  0.08855004  0.64880331  0.16756737     0.27200
H1648       H  0.02519873  0.68649794  0.30176713     0.22000
H1649       H  0.03277109  0.80068467  0.26226619     0.27300
H1650       H  0.98635985  0.70323267  0.24108249     0.16100
C1651       C  0.16114999  0.76488188  0.07695115    -0.11100
C1652       C  0.16623888  0.74062175  0.08029314     0.15400
C1653       C  0.19166707  0.73190830  0.07426948     0.02300
C1654       C  0.21087502  0.74745194  0.06469014    -0.15500
C1655       C  0.20476830  0.77108481  0.05891380    -0.10300
C1656       C  0.17988115  0.78003997  0.06601585     0.09000
C1657       C  0.14383273  0.72492767  0.08792084     0.10100
S1658       S  0.20004728  0.70084454  0.07507762    -0.24600
H1659       H  0.22957513  0.74024418  0.05842648     0.20300
S1660       S  0.16955292  0.80971269  0.05845152    -0.30300
H1661       H  0.14176806  0.77176680  0.08147233     0.10600
C1662       C  0.14412088  0.71154755  0.11009583     0.03800
C1663       C  0.12216883  0.69743509  0.11636818    -0.12600
C1664       C  0.09913848  0.69721760  0.10174989    -0.08300
C1665       C  0.09866278  0.71110490  0.07978290     0.07300
C1666       C  0.12115799  0.72435259  0.07292883    -0.13400
S1667       S  0.17152744  0.71364101  0.13140031    -0.30300
H1668       H  0.12261268  0.68698851  0.13327852     0.11500
S1669       S  0.06903878  0.71369831  0.06135940    -0.27400
H1670       H  0.12093507  0.73488677  0.05605789     0.08800
H1671       H  0.19496463  0.81969997  0.05745388     0.27200
H1672       H  0.16268456  0.69618186  0.14826390     0.22000
H1673       H  0.07905827  0.72990653  0.04370940     0.27300
H1674       H  0.17460037  0.69217569  0.06994981     0.16100
C1675       C  0.89117069  0.70316836  0.20343124    -0.11100
C1676       C  0.90963959  0.72180405  0.20247964     0.15400
C1677       C  0.92732646  0.72305961  0.18182436     0.02300
C1678       C  0.92470760  0.70685336  0.16216957    -0.15500
C1679       C  0.90546136  0.68892041  0.16279601    -0.10300
C1680       C  0.88920172  0.68662190  0.18417123     0.09000
C1681       C  0.91148889  0.73791749  0.22440708     0.10100
S1682       S  0.95365028  0.74469090  0.17889423    -0.24600
H1683       H  0.93707352  0.70887629  0.14574691     0.20300
S1684       S  0.86481481  0.66338250  0.18754843    -0.30300
H1685       H  0.87800746  0.70152955  0.21934248     0.10600
C1686       C  0.91170712  0.76292556  0.22234679     0.03800
C1687       C  0.92167150  0.77651094  0.24219088    -0.12600
C1688       C  0.92934361  0.76550160  0.26443204    -0.08300
C1689       C  0.92281307  0.74142134  0.26823162     0.07300
C1690       C  0.91491511  0.72768389  0.24800231    -0.13400
S1691       S  0.90063968  0.77735141  0.19427360    -0.30300
H1692       H  0.92593848  0.79517317  0.23950730     0.11500
S1693       S  0.92911829  0.72653851  0.29733528    -0.27400
H1694       H  0.91335216  0.70864284  0.25033210     0.08800
H1695       H  0.87687426  0.64741730  0.17095407     0.27200
H1696       H  0.90437720  0.80074146  0.20269003     0.22000
H1697       H  0.92977286  0.74727526  0.31188754     0.27300
H1698       H  0.95813733  0.74776057  0.20448915     0.16100
C1699       C  0.79330103  0.69518074  0.10547596    -0.11100
C1700       C  0.79329716  0.70955702  0.08415230     0.15400
C1701       C  0.81571622  0.70938480  0.06822489     0.02300
C1702       C  0.83825971  0.69663925  0.07505903    -0.15500
C1703       C  0.83877096  0.68324779  0.09709188    -0.10300
C1704       C  0.81543905  0.68163389  0.11172683     0.09000
C1705       C  0.77061084  0.72568559  0.07950389     0.10100
S1706       S  0.81700832  0.72557607  0.03921326    -0.24600
H1707       H  0.85587997  0.69794552  0.06357642     0.20300
S1708       S  0.81281252  0.66277010  0.13877528    -0.30300
H1709       H  0.77608434  0.69478680  0.11755402     0.10600
C1710       C  0.74531257  0.71709917  0.07313648     0.03800
C1711       C  0.72635920  0.73295356  0.06385982    -0.12600
C1712       C  0.73243243  0.75709507  0.06020390    -0.08300
C1713       C  0.75680499  0.76589359  0.06915968     0.07300
C1714       C  0.77536363  0.75020052  0.07896248    -0.13400
S1715       S  0.73827300  0.68568438  0.07355182    -0.30300
H1716       H  0.70805867  0.72604241  0.05638508     0.11500
S1717       S  0.76752610  0.79608747  0.06423586    -0.27400
H1718       H  0.79461632  0.75693426  0.08424068     0.08800
H1719       H  0.83182215  0.64628556  0.13081435     0.27200
H1720       H  0.71121392  0.68747624  0.06815017     0.22000
H1721       H  0.74234078  0.80619158  0.06516303     0.27300
H1722       H  0.78992365  0.72349233  0.03394549     0.16100
C1723       C  0.93168801  0.69975018  0.84084517    -0.11100
C1724       C  0.91153524  0.69711606  0.82319881     0.15400
C1725       C  0.89181091  0.67975114  0.82733183     0.02300
C1726       C  0.89147433  0.66704865  0.84985298    -0.15500
C1727       C  0.91003397  0.67167950  0.86871532    -0.10300
C1728       C  0.93095410  0.68760581  0.86357435     0.09000
C1729       C  0.91204850  0.71306603  0.80107960     0.10100
S1730       S  0.86544774  0.67424968  0.80563341    -0.24600
H1731       H  0.87513748  0.65507679  0.85367779     0.20300
S1732       S  0.95578194  0.69494146  0.88621251    -0.30300
H1733       H  0.94724525  0.71256078  0.83747162     0.10600
C1734       C  0.91128786  0.73798518  0.80388704     0.03800
C1735       C  0.91956973  0.75261117  0.78410919    -0.12600
C1736       C  0.92848827  0.74272029  0.76166292    -0.08300
C1737       C  0.92445840  0.71819963  0.75752080     0.07300
C1738       C  0.91693855  0.70351641  0.77740986    -0.13400
S1739       S  0.90186606  0.75109575  0.83330088    -0.30300
H1740       H  0.92244907  0.77140895  0.78726317     0.11500
S1741       S  0.93340945  0.70433228  0.72844440    -0.27400
H1742       H  0.91689109  0.68445994  0.77487767     0.08800
H1743       H  0.93774591  0.69998113  0.90545717     0.27200
H1744       H  0.90317102  0.77485892  0.82537775     0.22000
H1745       H  0.93343881  0.72536685  0.71432946     0.27300
H1746       H  0.86377680  0.69760511  0.79665250     0.16100
C1747       C  0.76191660  0.73482987  0.95015083    -0.11100
C1748       C  0.78773992  0.74199944  0.95612563     0.15400
C1749       C  0.79146038  0.76399539  0.96830151     0.02300
C1750       C  0.76949734  0.77741105  0.97540637    -0.15500
C1751       C  0.74373485  0.76843963  0.97274986    -0.10300
C1752       C  0.73994676  0.74755520  0.95872533     0.09000
C1753       C  0.81027920  0.72604372  0.95005892     0.10100
S1754       S  0.82337287  0.77444884  0.97837104    -0.24600
H1755       H  0.77263475  0.79311492  0.98668255     0.20300
S1756       S  0.70769868  0.73473656  0.95402733    -0.30300
H1757       H  0.75882514  0.71836563  0.94016593     0.10600
C1758       C  0.81241547  0.70307439  0.96047321     0.03800
C1759       C  0.83409515  0.68868410  0.95411086    -0.12600
C1760       C  0.85410286  0.69690785  0.93798867    -0.08300
C1761       C  0.85250332  0.72049016  0.92879020     0.07300
C1762       C  0.83041709  0.73436342  0.93429810    -0.13400
S1763       S  0.78791491  0.69222200  0.98235394    -0.30300
H1764       H  0.83524387  0.67080379  0.96134364     0.11500
S1765       S  0.87844192  0.73448944  0.91076322    -0.27400
H1766       H  0.82920385  0.75211744  0.92666236     0.08800
H1767       H  0.69341813  0.75556151  0.95866053     0.27200
H1768       H  0.79976360  0.67018397  0.98703734     0.22000
H1769       H  0.89910151  0.72247394  0.92265160     0.27300
H1770       H  0.83297019  0.75195272  0.98494199     0.16100
C1771       C  0.19889574  0.72701587  0.95803445    -0.11100
C1772       C  0.17513069  0.73628246  0.94907928     0.15400
C1773       C  0.17239419  0.76117109  0.94740046     0.02300
C1774       C  0.19157549  0.77604226  0.95806470    -0.15500
C1775       C  0.21387689  0.76658062  0.96981045    -0.10300
C1776       C  0.21846062  0.74193175  0.96785186     0.09000
C1777       C  0.15239438  0.71986404  0.94500546     0.10100
S1778       S  0.14391271  0.77483041  0.93356110    -0.24600
H1779       H  0.18774146  0.79488136  0.95944207     0.20300
S1780       S  0.24717575  0.72830583  0.98125063    -0.30300
H1781       H  0.20148086  0.70797448  0.95895134     0.10600
C1782       C  0.15210884  0.70328413  0.92542538     0.00200
C1783       C  0.12996387  0.68849127  0.92230374    -0.12600
C1784       C  0.10760310  0.69020420  0.93797309    -0.08300
C1785       C  0.10816340  0.70658272  0.95791731     0.07300
C1786       C  0.13064330  0.72096098  0.96134779    -0.13400
S1787       S  0.17910417  0.70214472  0.90333939    -0.30300
H1788       H  0.12953268  0.67615401  0.90686143     0.11500
S1789       S  0.07964117  0.71090916  0.97777079    -0.27400
H1790       H  0.13105913  0.73370700  0.97641868     0.08800
H1791       H  0.26308460  0.74880213  0.98017832     0.27200
H1792       H  0.16922662  0.68324258  0.88900570     0.22000
H1793       H  0.09156437  0.72675751  0.99456837     0.27300
H1794       H  0.13799208  0.75597431  0.91734634     0.16100
C1795       C  0.05652825  0.68197317  0.82852202    -0.11100
C1796       C  0.03992383  0.70167836  0.82601059     0.15400
C1797       C  0.02301462  0.70766943  0.84618611     0.02300
C1798       C  0.02506859  0.69555775  0.86889805    -0.15500
C1799       C  0.04279849  0.67681543  0.87186615    -0.10300
C1800       C  0.05803500  0.66948061  0.85109904     0.09000
C1801       C  0.03994255  0.71531409  0.80213750     0.10100
S1802       S  0.99893865  0.73106755  0.84448977    -0.24600
H1803       H  0.01383688  0.70170491  0.88484432     0.20300
S1804       S  0.08111430  0.64530728  0.85290017    -0.30300
H1805       H  0.06901023  0.67672940  0.81303575     0.10600
C1806       C  0.04413171  0.74012481  0.80142230     0.03800
C1807       C  0.03523001  0.75316465  0.78075005    -0.12600
C1808       C  0.02344074  0.74160958  0.76046292    -0.08300
C1809       C  0.02521614  0.71661447  0.75905673     0.07300
C1810       C  0.03267532  0.70367974  0.78012615    -0.13400
S1811       S  0.05916780  0.75521385  0.82745061    -0.30300
H1812       H  0.03462124  0.77232969  0.78167007     0.11500
S1813       S  0.01322477  0.70038243  0.73246757    -0.27400
H1814       H  0.03068903  0.68454247  0.77996334     0.08800
H1815       H  0.06875038  0.63371373  0.87306831     0.27200
H1816       H  0.05693736  0.77830398  0.81780466     0.22000
H1817       H  0.01389273  0.71979268  0.71597921     0.27300
H1818       H  0.99293475  0.72771817  0.81918350     0.16100
loop_ 
_geom_bond_atom_site_label_1 
_geom_bond_atom_site_label_2 
_geom_bond_distance 
_geom_bond_site_symmetry_2 
_ccdc_geom_bond_type 
C1            C2   1.410       .  A
C1            C6   1.395       .  A
C1         C1784   1.496       .  S
C2            C3   1.421       .  A
C2            H7   1.083       .  S
C3            C4   1.418       .  A
C3           C75   1.504       .  S
C4            C5   1.413       .  A
C4            H8   1.083       .  S
C5            C6   1.395       .  A
C5         C1799   1.483       .  S
C6            H9   1.085       .  S
C10          C11   1.393       .  A
C10          C15   1.408       .  A
C10        C1760   1.497       .  S
C11          C12   1.397       .  A
C11          H16   1.085       .  S
C12          C13   1.416       .  A
C12        C1727   1.485       .  S
C13          C14   1.417       .  A
C13          H17   1.083       .  S
C14          C15   1.425       .  A
C14         C104   1.508       .  S
C15          H18   1.083       .  S
C19          C20   1.414       .  A
C19          C24   1.398       .  A
C19        C1679   1.481       .  S
C20          C21   1.414       .  A
C20          H25   1.083       .  S
C21          C22   1.422       .  A
C21          C95   1.498       .  S
C22          C23   1.405       .  A
C22          H26   1.083       .  S
C23          C24   1.391       .  A
C23        C1703   1.491       .  S
C24          H27   1.085       .  S
C28          C29   1.423       .  A
C28          C33   1.402       .  A
C28        C1631   1.501       .  S
C29          C30   1.423       .  A
C29          H34   1.083       .  S
C30          C31   1.419       .  A
C30          C84   1.511       .  S
C31          C32   1.403       .  A
C31          H35   1.082       .  S
C32          C33   1.395       .  A
C32        C1664   1.497       .  S
C33          H36   1.084       .  S
C37          C38   1.419       .  A
C37          C42   1.404       .  A
C37        C1583   1.499       .  S
C38          C39   1.419       .  A
C38          H43   1.083       .  S
C39          C40   1.421       .  A
C39         C101   1.504       .  S
C40          C41   1.405       .  A
C40          H44   1.083       .  S
C41          C42   1.394       .  A
C41        C1607   1.502       .  S
C42          H45   1.084       .  S
C46          C47   1.392       .  A
C46          C51   1.407       .  A
C46        C1544   1.494       .  S
C47          C48   1.396       .  A
C47          H52   1.085       .  S
C48          C49   1.411       .  A
C48        C1568   1.480       .  S
C49          C50   1.415       .  A
C49          H53   1.083       .  S
C50          C51   1.422       .  A
C50          C98   1.497       .  S
C51          H54   1.083       .  S
C55          C56   1.409       .  A
C55          C60   1.393       .  A
C55        C1487   1.494       .  S
C56          C57   1.421       .  A
C56          H61   1.083       .  S
C57          C58   1.417       .  A
C57          C81   1.503       .  S
C58          C59   1.416       .  A
C58          H62   1.083       .  S
C59          C60   1.399       .  A
C59        C1520   1.492       .  S
C60          H63   1.085       .  S
C64          C65   1.422       .  A
C64          C69   1.402       .  A
C64        C1439   1.496       .  S
C65          C66   1.421       .  A
C65          H70   1.082       .  S
C66          C67   1.419       .  A
C66          C78   1.506       .  S
C67          C68   1.400       .  A
C67          H71   1.083       .  S
C68          C69   1.393       .  A
C68        C1463   1.491       .  S
C69          H72   1.085       .  S
O73         Zr85   2.450   1_556  S
O73          C75   1.291       .  A
O74        Zr111   2.471   1_455  S
O74          C75   1.296       .  A
O76         Zr88   2.431       .  S
O76          C78   1.287       .  A
O77        Zr112   2.487   1_455  S
O77          C78   1.298       .  A
O79         Zr88   2.441   1_556  S
O79          C81   1.289       .  A
O80        Zr111   2.483   1_455  S
O80          C81   1.299       .  A
O82         Zr85   2.444       .  S
O82          C84   1.291       .  A
O83        Zr112   2.488   1_455  S
O83          C84   1.298       .  A
Zr85         O86   2.434       .  S
Zr85         O87   2.435       .  S
Zr85         O91   2.369   1_554  S
Zr85         O92   2.373       .  S
Zr85        O115   2.374   1_455  S
Zr85        O117   2.370   1_454  S
O86         H129   0.990       .  S
O87         H128   0.990       .  S
O87         H132   0.990       .  S
Zr88         O89   2.436       .  S
Zr88         O90   2.435       .  S
Zr88         O92   2.373       .  S
Zr88         O91   2.367   1_554  S
Zr88        O116   2.371   1_454  S
Zr88        O118   2.368   1_455  S
O89         H130   0.990       .  S
O89         H133   0.990       .  S
O90         H123   0.990       .  S
O91        Zr111   2.398   1_455  S
O92        Zr112   2.409   1_455  S
O92         H119   0.966       .  S
O93        Zr105   2.417       .  S
O93          C95   1.284       .  A
O94        Zr112   2.496       .  S
O94          C95   1.301       .  A
O96        Zr108   2.428   1_556  S
O96          C98   1.287       .  A
O97        Zr111   2.478       .  S
O97          C98   1.297       .  A
O99        Zr108   2.428       .  S
O99         C101   1.287       .  A
O100       Zr112   2.490       .  S
O100        C101   1.299       .  A
O102       Zr105   2.432   1_556  S
O102        C104   1.287       .  A
O103       Zr111   2.487       .  S
O103        C104   1.299       .  A
Zr105       O106   2.437       .  S
Zr105       O107   2.434       .  S
Zr105       O113   2.375       .  S
Zr105       O114   2.362   1_554  S
Zr105       O117   2.365   1_554  S
Zr105       O115   2.377       .  S
O106        H126   0.990       .  S
O106        H131   0.990       .  S
O107        H127   0.989       .  S
Zr108       O109   2.435       .  S
Zr108       O110   2.434       .  S
Zr108       O114   2.367   1_554  S
Zr108       O113   2.370       .  S
Zr108       O118   2.366       .  S
Zr108       O116   2.371   1_554  S
O109        H125   0.990       .  S
O110        H124   0.990       .  S
O110        H134   0.990       .  S
Zr111       O114   2.394       .  S
Zr111       O116   2.403       .  S
Zr111       O117   2.401       .  S
Zr112       O113   2.407       .  S
Zr112       O115   2.409       .  S
Zr112       O118   2.401       .  S
O113        H121   0.966       .  S
O116        H120   0.967       .  S
O117        H122   0.966       .  S
C135        C136   1.400       .  A
C135        C140   1.392   1_545  A
C135       C1391   1.479       .  S
C136        C137   1.412       .  A
C136        H141   1.084       .  S
C137        C138   1.418       .  A
C137        C209   1.496       .  S
C138        C139   1.419   1_545  A
C138        H142   1.083   1_545  S
C139        C140   1.398       .  A
C139       C1415   1.492       .  S
C140        H143   1.085       .  S
C144        C145   1.392   1_545  A
C144        C149   1.403       .  A
C144       C1376   1.486       .  S
C145        C146   1.397       .  A
C145        H150   1.084       .  S
C146        C147   1.415   1_565  A
C146       C1352   1.487       .  S
C147        C148   1.418       .  A
C147        H151   1.083   1_545  S
C148        C149   1.416       .  A
C148        C238   1.501       .  S
C149        H152   1.083       .  S
C153        C154   1.416       .  A
C153        C158   1.395       .  A
C153       C1295   1.491       .  S
C154        C155   1.420       .  A
C154        H159   1.082       .  S
C155        C156   1.418       .  A
C155        C229   1.504       .  S
C156        C157   1.405       .  A
C156        H160   1.083       .  S
C157        C158   1.391       .  A
C157       C1319   1.488       .  S
C158        H161   1.084       .  S
C162        C163   1.414       .  A
C162        C167   1.396       .  A
C162       C1256   1.481       .  S
C163        C164   1.415       .  A
C163        H168   1.083       .  S
C164        C165   1.417       .  A
C164        C218   1.500       .  S
C165        C166   1.405       .  A
C165        H169   1.083       .  S
C166        C167   1.395       .  A
C166       C1271   1.491       .  S
C167        H170   1.084       .  S
C171        C172   1.419       .  A
C171        C176   1.400       .  A
C171       C1208   1.493       .  S
C172        C173   1.421       .  A
C172        H177   1.083       .  S
C173        C174   1.417       .  A
C173        C235   1.509       .  S
C174        C175   1.405       .  A
C174        H178   1.083       .  S
C175        C176   1.397       .  A
C175       C1223   1.495       .  S
C176        H179   1.084       .  S
C180        C181   1.404       .  A
C180        C185   1.394   1_545  A
C180       C1160   1.484       .  S
C181        C182   1.414       .  A
C181        H186   1.084       .  S
C182        C183   1.415   1_545  A
C182        C232   1.494       .  S
C183        C184   1.412       .  A
C183        H187   1.083       .  S
C184        C185   1.398       .  A
C184       C1184   1.484       .  S
C185        H188   1.085       .  S
C189        C190   1.403       .  A
C189        C194   1.395   1_545  A
C189       C1103   1.491       .  S
C190        C191   1.415       .  A
C190        H195   1.084       .  S
C191        C192   1.415       .  A
C191        C215   1.494       .  S
C192        C193   1.417   1_545  A
C192        H196   1.083   1_545  S
C193        C194   1.401       .  A
C193       C1127   1.494       .  S
C194        H197   1.085       .  S
C198        C199   1.405       .  A
C198        C203   1.399       .  A
C198       C1079   1.479       .  S
C199        C200   1.410       .  A
C199        H204   1.083       .  S
C200        C201   1.420       .  A
C200        C212   1.494       .  S
C201        C202   1.413       .  A
C201        H205   1.083       .  S
C202        C203   1.399       .  A
C202       C1055   1.505       .  S
C203        H206   1.083       .  S
O207       Zr219   2.447       .  S
O207        C209   1.290       .  A
O208       Zr245   2.457       .  S
O208        C209   1.292       .  A
O210       Zr222   2.436       .  S
O210        C212   1.287       .  A
O211       Zr246   2.466       .  S
O211        C212   1.295       .  A
O213       Zr222   2.434       .  S
O213        C215   1.288       .  A
O214       Zr245   2.468       .  S
O214        C215   1.294       .  A
O216       Zr219   2.436       .  S
O216        C218   1.288       .  A
O217       Zr246   2.471       .  S
O217        C218   1.295       .  A
Zr219       O220   2.434       .  S
Zr219       O221   2.434       .  S
Zr219       O225   2.365       .  S
Zr219       O226   2.378       .  S
Zr219       O249   2.371       .  S
Zr219       O251   2.366       .  S
O220        H263   0.990       .  S
O221        H262   0.990       .  S
O221        H266   0.990       .  S
Zr222       O223   2.438       .  S
Zr222       O224   2.435       .  S
Zr222       O226   2.371       .  S
Zr222       O225   2.364       .  S
Zr222       O250   2.378       .  S
Zr222       O252   2.373       .  S
O223        H264   0.990       .  S
O223        H267   0.990       .  S
O224        H257   0.990       .  S
O225       Zr245   2.388       .  S
O226       Zr246   2.401       .  S
O226        H253   0.966       .  S
O227       Zr239   2.452       .  S
O227        C229   1.292       .  A
O228       Zr246   2.464       .  S
O228        C229   1.294   1_554  A
O230       Zr242   2.450       .  S
O230        C232   1.291       .  A
O231       Zr245   2.447       .  S
O231        C232   1.291   1_554  A
O233       Zr242   2.454       .  S
O233        C235   1.292       .  A
O234       Zr246   2.468       .  S
O234        C235   1.294   1_554  A
O236       Zr239   2.448       .  S
O236        C238   1.291       .  A
O237       Zr245   2.460       .  S
O237        C238   1.293   1_554  A
Zr239       O240   2.437       .  S
Zr239       O241   2.435       .  S
Zr239       O247   2.373       .  S
Zr239       O248   2.366       .  S
Zr239       O251   2.380   1_556  S
Zr239       O249   2.373   1_556  S
O240        H260   0.990       .  S
O240        H265   0.990       .  S
O241        H261   0.990       .  S
Zr242       O243   2.434       .  S
Zr242       O244   2.433   1_556  S
Zr242       O248   2.366       .  S
Zr242       O247   2.369       .  S
Zr242       O252   2.371   1_556  S
Zr242       O250   2.378   1_556  S
O243        H259   0.990       .  S
O244        H258   0.990       .  S
O244        H268   0.990   1_554  S
Zr245       O248   2.391   1_554  S
Zr245       O250   2.404       .  S
Zr245       O251   2.402       .  S
Zr246       O247   2.400   1_554  S
Zr246       O249   2.400       .  S
Zr246       O252   2.396       .  S
O247        H255   0.966       .  S
O250        H254   0.971       .  S
O251        H256   0.969       .  S
C269        C270   1.393   1_545  A
C269        C274   1.404       .  A
C269       C1016   1.490       .  S
C270        C271   1.397       .  A
C270        H275   1.085       .  S
C271        C272   1.414       .  A
C271       C1040   1.484       .  S
C272        C273   1.419   1_565  A
C272        H276   1.083       .  S
C273        C274   1.418       .  A
C273        C349   1.501       .  S
C274        H277   1.083       .  S
C278        C279   1.391       .  A
C278        C283   1.388   1_545  A
C278        C983   1.474       .  S
C279        C280   1.412       .  A
C279        H284   1.084       .  S
C280        C281   1.427   1_545  A
C280        C366   1.504       .  S
C281        C282   1.432       .  A
C281        H285   1.082       .  S
C282        C283   1.402       .  A
C282        C968   1.515       .  S
C283        H286   1.081       .  S
C287        C288   1.416       .  A
C287        C292   1.391       .  A
C287        C911   1.480       .  S
C288        C289   1.419       .  A
C288        H293   1.083       .  S
C289        C290   1.416       .  A
C289        C369   1.496       .  S
C290        C291   1.401       .  A
C290        H294   1.084       .  S
C291        C292   1.389       .  A
C291        C944   1.477       .  S
C292        H295   1.086       .  S
C296        C297   1.418       .  A
C296        C301   1.398       .  A
C296        C863   1.494       .  S
C297        C298   1.420       .  A
C297        H302   1.083       .  S
C298        C299   1.412       .  A
C298        C346   1.497       .  S
C299        C300   1.401       .  A
C299        H303   1.083       .  S
C300        C301   1.392       .  A
C300        C896   1.487       .  S
C301        H304   1.084       .  S
C305        C306   1.397       .  A
C305        C310   1.413       .  A
C305        C815   1.487       .  S
C306        C307   1.394       .  A
C306        H311   1.084       .  S
C307        C308   1.403       .  A
C307        C839   1.486       .  S
C308        C309   1.410       .  A
C308        H312   1.084       .  S
C309        C310   1.415       .  A
C309        C363   1.491       .  S
C310        H313   1.083       .  S
C314        C315   1.403       .  A
C314        C319   1.393   1_545  A
C314        C776   1.487       .  S
C315        C316   1.415       .  A
C315        H320   1.084       .  S
C316        C317   1.412   1_545  A
C316        C372   1.487       .  S
C317        C318   1.410       .  A
C317        H321   1.083       .  S
C318        C319   1.399       .  A
C318        C800   1.481       .  S
C319        H322   1.085       .  S
C323        C324   1.407       .  A
C323        C328   1.395   1_545  A
C323        C719   1.491       .  S
C324        C325   1.418       .  A
C324        H329   1.083       .  S
C325        C326   1.418   1_545  A
C325        C343   1.503       .  S
C326        C327   1.416       .  A
C326        H330   1.083       .  S
C327        C328   1.400       .  A
C327        C743   1.490       .  S
C328        H331   1.085       .  S
C332        C333   1.393       .  A
C332        C337   1.417       .  A
C332        C680   1.485       .  S
C333        C334   1.394       .  A
C333        H338   1.085       .  S
C334        C335   1.400       .  A
C334        C695   1.485       .  S
C335        C336   1.413       .  A
C335        H339   1.082       .  S
C336        C337   1.420       .  A
C336        C352   1.497       .  S
C337        H340   1.083       .  S
O341       Zr353   2.452       .  S
O341        C343   1.291       .  A
O342       Zr379   2.470   1_455  S
O342        C343   1.295       .  A
O344       Zr356   2.454       .  S
O344        C346   1.293       .  A
O345       Zr380   2.445   1_455  S
O345        C346   1.290       .  A
O347       Zr356   2.447       .  S
O347        C349   1.291       .  A
O348       Zr379   2.463   1_455  S
O348        C349   1.294       .  A
O350       Zr353   2.449       .  S
O350        C352   1.292       .  A
O351       Zr380   2.450   1_455  S
O351        C352   1.290       .  A
Zr353       O354   2.434       .  S
Zr353       O355   2.436       .  S
Zr353       O359   2.373       .  S
Zr353       O360   2.374       .  S
Zr353       O383   2.372   1_455  S
Zr353       O385   2.371   1_455  S
O354        H397   0.990       .  S
O355        H396   0.990       .  S
O355        H400   0.990       .  S
Zr356       O357   2.435       .  S
Zr356       O358   2.434       .  S
Zr356       O360   2.368       .  S
Zr356       O359   2.370       .  S
Zr356       O384   2.373   1_455  S
Zr356       O386   2.372   1_455  S
O357        H398   0.990       .  S
O357        H401   0.990       .  S
O358        H391   0.990       .  S
O359       Zr379   2.399   1_455  S
O360       Zr380   2.403   1_455  S
O360        H387   0.966       .  S
O361       Zr373   2.448       .  S
O361        C363   1.291       .  A
O362       Zr380   2.444       .  S
O362        C363   1.289       .  A
O364       Zr376   2.436       .  S
O364        C366   1.289       .  A
O365       Zr379   2.477       .  S
O365        C366   1.295       .  A
O367       Zr376   2.442       .  S
O367        C369   1.289       .  A
O368       Zr380   2.464       .  S
O368        C369   1.293       .  A
O370       Zr373   2.423       .  S
O370        C372   1.286       .  A
O371       Zr379   2.468       .  S
O371        C372   1.294       .  A
Zr373       O374   2.437       .  S
Zr373       O375   2.436       .  S
Zr373       O381   2.365       .  S
Zr373       O382   2.375       .  S
Zr373       O385   2.375       .  S
Zr373       O383   2.365       .  S
O374        H394   0.990       .  S
O374        H399   0.990       .  S
O375        H395   0.990       .  S
Zr376       O377   2.434       .  S
Zr376       O378   2.434       .  S
Zr376       O382   2.371       .  S
Zr376       O381   2.369       .  S
Zr376       O386   2.366       .  S
Zr376       O384   2.366       .  S
O377        H393   0.990       .  S
O378        H392   0.990       .  S
O378        H402   0.990       .  S
Zr379       O382   2.398       .  S
Zr379       O384   2.402       .  S
Zr379       O385   2.405       .  S
Zr380       O381   2.394       .  S
Zr380       O383   2.397       .  S
Zr380       O386   2.393       .  S
O381        H389   0.966       .  S
O384        H388   0.966       .  S
O385        H390   0.967       .  S
C403        C404   1.394   1_455  A
C403        C408   1.424       .  A
C403       C1448   1.493       .  S
C404        C405   1.388       .  A
C404        H423   1.088       .  S
C405        C406   1.413       .  A
C405       C1592   1.484       .  S
C406        C407   1.424       .  A
C406        C413   1.403       .  A
C407        C408   1.425   1_655  A
C407        C412   1.422       .  A
C408        C409   1.407       .  A
C409        C410   1.406       .  A
C409        H419   1.083       .  S
C410        C411   1.407       .  A
C410        H420   1.083       .  S
C411        C412   1.428   1_455  A
C411        C418   1.422       .  A
C412        C415   1.427       .  A
C413        C414   1.399       .  A
C413        H421   1.083       .  S
C414        C415   1.405       .  A
C414        H422   1.083       .  S
C415        C416   1.414       .  A
C416        C417   1.388       .  A
C416        C824   1.484       .  S
C417        C418   1.391   1_655  A
C417        H424   1.088       .  S
C418        C671   1.490       .  S
C425        C426   1.393       .  A
C425        C430   1.418       .  A
C425       C1112   1.486       .  S
C426        C427   1.389       .  A
C426        H445   1.087       .  S
C427        C428   1.411       .  A
C427       C1064   1.479       .  S
C428        C429   1.424       .  A
C428        C435   1.404       .  A
C429        C430   1.424       .  A
C429        C434   1.420       .  A
C430        C431   1.406       .  A
C431        C432   1.400       .  A
C431        H441   1.083       .  S
C432        C433   1.405       .  A
C432        H442   1.083       .  S
C433        C434   1.426       .  A
C433        C440   1.418       .  A
C434        C437   1.424       .  A
C435        C436   1.395       .  A
C435        H443   1.083       .  S
C436        C437   1.404       .  A
C436        H444   1.083       .  S
C437        C438   1.410       .  A
C438        C439   1.389       .  A
C438        C704   1.477       .  S
C439        C440   1.392       .  A
C439        H446   1.087       .  S
C440        C728   1.486       .  S
C447        C448   1.389       .  A
C447        C452   1.414       .  A
C447       C1472   1.486       .  S
C448        C449   1.392   1_554  A
C448        H467   1.086       .  S
C449        C450   1.418       .  A
C449       C1496   1.485       .  S
C450        C451   1.425   1_556  A
C450        C457   1.407       .  A
C451        C452   1.427       .  A
C451        C456   1.421       .  A
C452        C453   1.404       .  A
C453        C454   1.395       .  A
C453        H463   1.083       .  S
C454        C455   1.404       .  A
C454        H464   1.083       .  S
C455        C456   1.423       .  A
C455        C462   1.409       .  A
C456        C459   1.428   1_554  A
C457        C458   1.403       .  A
C457        H465   1.083       .  S
C458        C459   1.406       .  A
C458        H466   1.083       .  S
C459        C460   1.423       .  A
C460        C461   1.395   1_556  A
C460       C1199   1.494       .  S
C461        C462   1.390       .  A
C461        H468   1.087       .  S
C462       C1088   1.479       .  S
C469        C470   1.395       .  A
C469        C474   1.415       .  A
C469       C1400   1.480       .  S
C470        C471   1.390       .  A
C470        H489   1.087       .  S
C471        C472   1.409       .  A
C471       C1280   1.479       .  S
C472        C473   1.424       .  A
C472        C479   1.403       .  A
C473        C474   1.422       .  A
C473        C478   1.417       .  A
C474        C475   1.407       .  A
C475        C476   1.400       .  A
C475        H485   1.083       .  S
C476        C477   1.405       .  A
C476        H486   1.083       .  S
C477        C478   1.425       .  A
C477        C484   1.417       .  A
C478        C481   1.422       .  A
C479        C480   1.392       .  A
C479        H487   1.083       .  S
C480        C481   1.404       .  A
C480        H488   1.083       .  S
C481        C482   1.407       .  A
C482        C483   1.389       .  A
C482        C848   1.474       .  S
C483        C484   1.393       .  A
C483        H490   1.087       .  S
C484        C767   1.483       .  S
C491        C492   1.390       .  A
C491        C496   1.408       .  A
C491       C1688   1.479       .  S
C492        C493   1.391       .  A
C492        H511   1.088       .  S
C493        C494   1.421   1_655  A
C493       C1640   1.488   1_655  S
C494        C495   1.427   1_455  A
C494        C501   1.407       .  A
C495        C496   1.425       .  A
C495        C500   1.419       .  A
C496        C497   1.404       .  A
C497        C498   1.393       .  A
C497        H507   1.083       .  S
C498        C499   1.402       .  A
C498        H508   1.083       .  S
C499        C500   1.425       .  A
C499        C506   1.407       .  A
C500        C503   1.427       .  A
C501        C502   1.405       .  A
C501        H509   1.083       .  S
C502        C503   1.406   1_455  A
C502        H510   1.083       .  S
C503        C504   1.420       .  A
C504        C505   1.391       .  A
C504        C752   1.486   1_655  S
C505        C506   1.386       .  A
C505        H512   1.087       .  S
C506        C791   1.478       .  S
C513        C514   1.390       .  A
C513        C518   1.413       .  A
C513       C1232   1.483       .  S
C514        C515   1.394       .  A
C514        H533   1.087       .  S
C515        C516   1.414       .  A
C515       C1151   1.480       .  S
C516        C517   1.422       .  A
C516        C523   1.407       .  A
C517        C518   1.425       .  A
C517        C522   1.418       .  A
C518        C519   1.404       .  A
C519        C520   1.396       .  A
C519        H529   1.083       .  S
C520        C521   1.405       .  A
C520        H530   1.083       .  S
C521        C522   1.422       .  A
C521        C528   1.410       .  A
C522        C525   1.426       .  A
C523        C524   1.398       .  A
C523        H531   1.083       .  S
C524        C525   1.405       .  A
C524        H532   1.083       .  S
C525        C526   1.416       .  A
C526        C527   1.393       .  A
C526       C1007   1.485       .  S
C527        C528   1.391       .  A
C527        H534   1.087       .  S
C528        C887   1.476       .  S
C535        C536   1.390       .  A
C535        C540   1.411       .  A
C535       C1559   1.479       .  S
C536        C537   1.388       .  A
C536        H555   1.088       .  S
C537        C538   1.418       .  A
C537       C1511   1.486   1_655  S
C538        C539   1.428       .  A
C538        C545   1.405   1_655  A
C539        C540   1.425       .  A
C539        C544   1.420       .  A
C540        C541   1.404       .  A
C541        C542   1.396       .  A
C541        H551   1.083       .  S
C542        C543   1.404       .  A
C542        H552   1.083       .  S
C543        C544   1.427       .  A
C543        C550   1.413       .  A
C544        C547   1.426       .  A
C545        C546   1.401       .  A
C545        H553   1.083       .  S
C546        C547   1.406   1_455  A
C546        H554   1.083       .  S
C547        C548   1.417       .  A
C548        C549   1.390       .  A
C548        C872   1.484   1_655  S
C549        C550   1.390       .  A
C549        H556   1.088       .  S
C550        C920   1.485       .  S
C557        C558   1.392   1_556  A
C557        C562   1.419       .  A
C557       C1775   1.487       .  S
C558        C559   1.391       .  A
C558        H577   1.087       .  S
C559        C560   1.414       .  A
C559       C1655   1.482       .  S
C560        C561   1.425       .  A
C560        C567   1.405       .  A
C561        C562   1.427   1_554  A
C561        C566   1.422       .  A
C562        C563   1.406       .  A
C563        C564   1.402       .  A
C563        H573   1.083       .  S
C564        C565   1.406       .  A
C564        H574   1.083       .  S
C565        C566   1.426   1_556  A
C565        C572   1.417       .  A
C566        C569   1.427       .  A
C567        C568   1.397       .  A
C567        H575   1.083       .  S
C568        C569   1.404       .  A
C568        H576   1.083       .  S
C569        C570   1.414       .  A
C570        C571   1.389       .  A
C570       C1136   1.486       .  S
C571        C572   1.392   1_554  A
C571        H578   1.087       .  S
C572       C1175   1.484       .  S
C579        C580   1.390       .  A
C579        C584   1.409       .  A
C579       C1616   1.478       .  S
C580        C581   1.394   1_554  A
C580        H599   1.087       .  S
C581        C582   1.421       .  A
C581       C1535   1.488       .  S
C582        C583   1.426   1_556  A
C582        C589   1.406       .  A
C583        C584   1.423       .  A
C583        C588   1.421       .  A
C584        C585   1.404       .  A
C585        C586   1.394       .  A
C585        H595   1.083       .  S
C586        C587   1.404       .  A
C586        H596   1.082       .  S
C587        C588   1.427       .  A
C587        C594   1.412       .  A
C588        C591   1.425   1_554  A
C589        C590   1.403       .  A
C589        H597   1.083       .  S
C590        C591   1.407       .  A
C590        H598   1.083       .  S
C591        C592   1.419       .  A
C592        C593   1.392   1_556  A
C592       C1304   1.487       .  S
C593        C594   1.390       .  A
C593        H600   1.087       .  S
C594       C1247   1.486       .  S
C601        C602   1.391   1_455  A
C601        C606   1.416       .  A
C601       C1808   1.488       .  S
C602        C603   1.390       .  A
C602        H621   1.087       .  S
C603        C604   1.413       .  A
C603       C1736   1.482       .  S
C604        C605   1.425       .  A
C604        C611   1.405       .  A
C605        C606   1.428   1_655  A
C605        C610   1.420       .  A
C606        C607   1.404       .  A
C607        C608   1.399       .  A
C607        H617   1.083       .  S
C608        C609   1.405       .  A
C608        H618   1.083       .  S
C609        C610   1.425   1_455  A
C609        C616   1.414       .  A
C610        C613   1.427       .  A
C611        C612   1.398       .  A
C611        H619   1.083       .  S
C612        C613   1.404       .  A
C612        H620   1.083       .  S
C613        C614   1.414       .  A
C614        C615   1.388       .  A
C614        C959   1.483       .  S
C615        C616   1.391   1_655  A
C615        H622   1.088       .  S
C616       C1031   1.483       .  S
C623        C624   1.392       .  A
C623        C628   1.410       .  A
C623       C1328   1.476       .  S
C624        C625   1.391       .  A
C624        H643   1.087       .  S
C625        C626   1.407       .  A
C625       C1367   1.472       .  S
C626        C627   1.420       .  A
C626        C633   1.405       .  A
C627        C628   1.422       .  A
C627        C632   1.412       .  A
C628        C629   1.404       .  A
C629        C630   1.397       .  A
C629        H639   1.083       .  S
C630        C631   1.406       .  A
C630        H640   1.083       .  S
C631        C632   1.421       .  A
C631        C638   1.410       .  A
C632        C635   1.422       .  A
C633        C634   1.394       .  A
C633        H641   1.083       .  S
C634        C635   1.404       .  A
C634        H642   1.082       .  S
C635        C636   1.407       .  A
C636        C637   1.390       .  A
C636        C992   1.477       .  S
C637        C638   1.393       .  A
C637        H644   1.087       .  S
C638        C935   1.476       .  S
C645        C646   1.392   1_556  A
C645        C650   1.414       .  A
C645       C1751   1.482       .  S
C646        C647   1.391       .  A
C646        H665   1.088       .  S
C647        C648   1.417       .  A
C647       C1712   1.486       .  S
C648        C649   1.426       .  A
C648        C655   1.406       .  A
C649        C650   1.424   1_554  A
C649        C654   1.421       .  A
C650        C651   1.405       .  A
C651        C652   1.398       .  A
C651        H661   1.083       .  S
C652        C653   1.405       .  A
C652        H662   1.083       .  S
C653        C654   1.426   1_556  A
C653        C660   1.415       .  A
C654        C657   1.425       .  A
C655        C656   1.399       .  A
C655        H663   1.083       .  S
C656        C657   1.405       .  A
C656        H664   1.083       .  S
C657        C658   1.416       .  A
C658        C659   1.390       .  A
C658       C1424   1.485       .  S
C659        C660   1.391   1_554  A
C659        H666   1.088       .  S
C660       C1343   1.483       .  S
C667        C668   1.403       .  A
C667        C672   1.403       .  A
C667        H677   1.083       .  S
C668        C669   1.421       .  A
C668        C673   1.503       .  S
C669        C670   1.407       .  A
C669        S674   1.804       .  S
C670        C671   1.403       .  A
C670        H675   1.084       .  S
C671        C672   1.418       .  A
C672        S676   1.803       .  S
C673        C678   1.417       .  A
C673        C682   1.405       .  A
S674        H690   1.407       .  S
S676        H687   1.406       .  S
C678        C679   1.413       .  A
C678        S683   1.806       .  S
C679        C680   1.407       .  A
C679        H684   1.083       .  S
C680        C681   1.415       .  A
C681        C682   1.398       .  A
C681        S685   1.806       .  S
C682        H686   1.084       .  S
S683        H688   1.407       .  S
S685        H689   1.402       .  S
C691        C692   1.405       .  A
C691        C696   1.399       .  A
C691        H701   1.084       .  S
C692        C693   1.408       .  A
C692        C697   1.478       .  S
C693        C694   1.394       .  A
C693        S698   1.804       .  S
C694        C695   1.409       .  A
C694        H699   1.084       .  S
C695        C696   1.415       .  A
C696        S700   1.804       .  S
C697        C702   1.410       .  A
C697        C706   1.401       .  A
S698        H714   1.406       .  S
S700        H711   1.406       .  S
C702        C703   1.402       .  A
C702        S707   1.806       .  S
C703        C704   1.401       .  A
C703        H708   1.083       .  S
C704        C705   1.411       .  A
C705        C706   1.399       .  A
C705        S709   1.807       .  S
C706        H710   1.083       .  S
S707        H712   1.407       .  S
S709        H713   1.407       .  S
C715        C716   1.404       .  A
C715        C720   1.404       .  A
C715        H725   1.084   1_545  S
C716        C717   1.417       .  A
C716        C721   1.492       .  S
C717        C718   1.402       .  A
C717        S722   1.804       .  S
C718        C719   1.403       .  A
C718        H723   1.084       .  S
C719        C720   1.417       .  A
C720        S724   1.804   1_545  S
C721        C726   1.412       .  A
C721        C730   1.404       .  A
S722        H738   1.406       .  S
S724        H735   1.407       .  S
C726        C727   1.407       .  A
C726        S731   1.806       .  S
C727        C728   1.407       .  A
C727        H732   1.083       .  S
C728        C729   1.413       .  A
C729        C730   1.402       .  A
C729        S733   1.802       .  S
C730        H734   1.084       .  S
S731        H736   1.407       .  S
S733        H737   1.403       .  S
C739        C740   1.401       .  A
C739        C744   1.402       .  A
C739        H749   1.084       .  S
C740        C741   1.419       .  A
C740        C745   1.493       .  S
C741        C742   1.405       .  A
C741        S746   1.804   1_455  S
C742        C743   1.403       .  A
C742        H747   1.084       .  S
C743        C744   1.417       .  A
C744        S748   1.803       .  S
C745        C750   1.413       .  A
C745        C754   1.402       .  A
S746        H762   1.404       .  S
S748        H759   1.407       .  S
C750        C751   1.409       .  A
C750        S755   1.806       .  S
C751        C752   1.406       .  A
C751        H756   1.083       .  S
C752        C753   1.414       .  A
C753        C754   1.402       .  A
C753        S757   1.801       .  S
C754        H758   1.084       .  S
S755        H760   1.407       .  S
S757        H761   1.407       .  S
C763        C764   1.402       .  A
C763        C768   1.398       .  A
C763        H773   1.084       .  S
C764        C765   1.412       .  A
C764        C769   1.482       .  S
C765        C766   1.404       .  A
C765        S770   1.806       .  S
C766        C767   1.408       .  A
C766        H771   1.084       .  S
C767        C768   1.412       .  A
C768        S772   1.802       .  S
C769        C774   1.406       .  A
C769        C778   1.403       .  A
S770        H786   1.404       .  S
S772        H783   1.402       .  S
C774        C775   1.405       .  A
C774        S779   1.805   1_545  S
C775        C776   1.408       .  A
C775        H780   1.083   1_545  S
C776        C777   1.416       .  A
C777        C778   1.399       .  A
C777        S781   1.804       .  S
C778        H782   1.084       .  S
S779        H784   1.407       .  S
S781        H785   1.407       .  S
C787        C788   1.404       .  A
C787        C792   1.394       .  A
C787        H797   1.084       .  S
C788        C789   1.417       .  A
C788        C793   1.490       .  S
C789        C790   1.403       .  A
C789        S794   1.804       .  S
C790        C791   1.403       .  A
C790        H795   1.084       .  S
C791        C792   1.411       .  A
C792        S796   1.803       .  S
C793        C798   1.419       .  A
C793        C802   1.401       .  A
S794        H810   1.406       .  S
S796        H807   1.406       .  S
C798        C799   1.408       .  A
C798        S803   1.808       .  S
C799        C800   1.401       .  A
C799        H804   1.083       .  S
C800        C801   1.415       .  A
C801        C802   1.393       .  A
C801        S805   1.806       .  S
C802        H806   1.084       .  S
S803        H808   1.406       .  S
S805        H809   1.407   1_565  S
C811        C812   1.407       .  A
C811        C816   1.405       .  A
C811        H821   1.084       .  S
C812        C813   1.413       .  A
C812        C817   1.491       .  S
C813        C814   1.401       .  A
C813        S818   1.805       .  S
C814        C815   1.408       .  A
C814        H819   1.084       .  S
C815        C816   1.408       .  A
C816        S820   1.800       .  S
C817        C822   1.412       .  A
C817        C826   1.405       .  A
S818        H834   1.405       .  S
S820        H831   1.407       .  S
C822        C823   1.406       .  A
C822        S827   1.807       .  S
C823        C824   1.408       .  A
C823        H828   1.083       .  S
C824        C825   1.411       .  A
C825        C826   1.401       .  A
C825        S829   1.803       .  S
C826        H830   1.084       .  S
S827        H832   1.407       .  S
S829        H833   1.403       .  S
C835        C836   1.401       .  A
C835        C840   1.397       .  A
C835        H845   1.084       .  S
C836        C837   1.415       .  A
C836        C841   1.480       .  S
C837        C838   1.396       .  A
C837        S842   1.806       .  S
C838        C839   1.404       .  A
C838        H843   1.084       .  S
C839        C840   1.419       .  A
C840        S844   1.805       .  S
C841        C846   1.411       .  A
C841        C850   1.403       .  A
S842        H858   1.406       .  S
S844        H855   1.407       .  S
C846        C847   1.400       .  A
C846        S851   1.808       .  S
C847        C848   1.403       .  A
C847        H852   1.083       .  S
C848        C849   1.411       .  A
C849        C850   1.396       .  A
C849        S853   1.804       .  S
C850        H854   1.084       .  S
S851        H856   1.407       .  S
S853        H857   1.401       .  S
C859        C860   1.407       .  A
C859        C864   1.404       .  A
C859        H869   1.084   1_455  S
C860        C861   1.410       .  A
C860        C865   1.488       .  S
C861        C862   1.401       .  A
C861        S866   1.804       .  S
C862        C863   1.411       .  A
C862        H867   1.084       .  S
C863        C864   1.411       .  A
C864        S868   1.794   1_455  S
C865        C870   1.410       .  A
C865        C874   1.402       .  A
S866        H882   1.406       .  S
S868        H879   1.407   1_655  S
C870        C871   1.408       .  A
C870        S875   1.806       .  S
C871        C872   1.408       .  A
C871        H876   1.083       .  S
C872        C873   1.414       .  A
C873        C874   1.399       .  A
C873        S877   1.802       .  S
C874        H878   1.084       .  S
S875        H880   1.407       .  S
S877        H881   1.403       .  S
C883        C884   1.405       .  A
C883        C888   1.398       .  A
C883        H893   1.084       .  S
C884        C885   1.413       .  A
C884        C889   1.482       .  S
C885        C886   1.398       .  A
C885        S890   1.804       .  S
C886        C887   1.403       .  A
C886        H891   1.084       .  S
C887        C888   1.410       .  A
C888        S892   1.803       .  S
C889        C894   1.413       .  A
C889        C898   1.400       .  A
S890        H906   1.406       .  S
S892        H903   1.404       .  S
C894        C895   1.401       .  A
C894        S899   1.809       .  S
C895        C896   1.405       .  A
C895        H900   1.082       .  S
C896        C897   1.419       .  A
C897        C898   1.397       .  A
C897        S901   1.806       .  S
C898        H902   1.084       .  S
S899        H904   1.407       .  S
S901        H905   1.407       .  S
C907        C908   1.407       .  A
C907        C912   1.398       .  A
C907        H917   1.083       .  S
C908        C909   1.416       .  A
C908        C913   1.498       .  S
C909        C910   1.405       .  A
C909        S914   1.804       .  S
C910        C911   1.407       .  A
C910        H915   1.084       .  S
C911        C912   1.414       .  A
C912        S916   1.807       .  S
C913        C918   1.418       .  A
C913        C922   1.404       .  A
S914        H930   1.407       .  S
S916        H927   1.402       .  S
C918        C919   1.406       .  A
C918        S923   1.807       .  S
C919        C920   1.401       .  A
C919        H924   1.083       .  S
C920        C921   1.413       .  A
C921        C922   1.399       .  A
C921        S925   1.802       .  S
C922        H926   1.083       .  S
S923        H928   1.407       .  S
S925        H929   1.408       .  S
C931        C932   1.402       .  A
C931        C936   1.396       .  A
C931        H941   1.084       .  S
C932        C933   1.415       .  A
C932        C937   1.482       .  S
C933        C934   1.399       .  A
C933        S938   1.804       .  S
C934        C935   1.402       .  A
C934        H939   1.084       .  S
C935        C936   1.411       .  A
C936        S940   1.802       .  S
C937        C942   1.416       .  A
C937        C946   1.400       .  A
S938        H954   1.406       .  S
S940        H951   1.407       .  S
C942        C943   1.403       .  A
C942        S947   1.808       .  S
C943        C944   1.401       .  A
C943        H948   1.083       .  S
C944        C945   1.413       .  A
C945        C946   1.395       .  A
C945        S949   1.804       .  S
C946        H950   1.084       .  S
S947        H952   1.407       .  S
S949        H953   1.407       .  S
C955        C956   1.406       .  A
C955        C960   1.404       .  A
C955        H965   1.083       .  S
C956        C957   1.423       .  A
C956        C961   1.498       .  S
C957        C958   1.399       .  A
C957        S962   1.807       .  S
C958        C959   1.400       .  A
C958        H963   1.085       .  S
C959        C960   1.413       .  A
C960        S964   1.801       .  S
C961        C966   1.418       .  A
C961        C970   1.392       .  A
S962        H978   1.404       .  S
S964        H975   1.407       .  S
C966        C967   1.415       .  A
C966        S971   1.806       .  S
C967        C968   1.409       .  A
C967        H972   1.081       .  S
C968        C969   1.432       .  A
C969        C970   1.395       .  A
C969        S973   1.808       .  S
C970        H974   1.083       .  S
S971        H976   1.407       .  S
S973        H977   1.407       .  S
C979        C980   1.402       .  A
C979        C984   1.390       .  A
C979        H989   1.084       .  S
C980        C981   1.421       .  A
C980        C985   1.487       .  S
C981        C982   1.404       .  A
C981        S986   1.804       .  S
C982        C983   1.400       .  A
C982        H987   1.084       .  S
C983        C984   1.411       .  A
C984        S988   1.805       .  S
C985        C990   1.414       .  A
C985        C994   1.404       .  A
S986       H1002   1.406       .  S
S988        H999   1.403       .  S
C990        C991   1.406       .  A
C990        S995   1.805       .  S
C991        C992   1.402       .  A
C991        H996   1.083       .  S
C992        C993   1.410       .  A
C993        C994   1.392       .  A
C993        S997   1.810       .  S
C994        H998   1.083       .  S
S995       H1000   1.407       .  S
S997       H1001   1.407       .  S
C1003      C1004   1.403       .  A
C1003      C1008   1.401       .  A
C1003      H1013   1.084       .  S
C1004      C1005   1.414       .  A
C1004      C1009   1.485       .  S
C1005      C1006   1.402       .  A
C1005      S1010   1.806       .  S
C1006      C1007   1.406       .  A
C1006      H1011   1.084       .  S
C1007      C1008   1.413       .  A
C1008      S1012   1.802       .  S
C1009      C1014   1.408       .  A
C1009      C1018   1.405       .  A
S1010      H1026   1.404       .  S
S1012      H1023   1.402       .  S
C1014      C1015   1.404       .  A
C1014      S1019   1.806   1_545  S
C1015      C1016   1.409       .  A
C1015      H1020   1.083   1_545  S
C1016      C1017   1.415       .  A
C1017      C1018   1.401       .  A
C1017      S1021   1.804       .  S
C1018      H1022   1.084       .  S
S1019      H1024   1.407       .  S
S1021      H1025   1.406       .  S
C1027      C1028   1.404       .  A
C1027      C1032   1.400       .  A
C1027      H1037   1.084       .  S
C1028      C1029   1.412       .  A
C1028      C1033   1.491       .  S
C1029      C1030   1.406       .  A
C1029      S1034   1.807       .  S
C1030      C1031   1.407       .  A
C1030      H1035   1.083       .  S
C1031      C1032   1.413       .  A
C1032      S1036   1.802       .  S
C1033      C1038   1.416       .  A
C1033      C1042   1.401       .  A
S1034      H1050   1.406       .  S
S1036      H1047   1.402       .  S
C1038      C1039   1.407       .  A
C1038      S1043   1.806   1_455  S
C1039      C1040   1.402       .  A
C1039      H1044   1.083       .  S
C1040      C1041   1.416       .  A
C1041      C1042   1.400       .  A
C1041      S1045   1.804       .  S
C1042      H1046   1.084       .  S
S1043      H1048   1.407       .  S
S1045      H1049   1.407       .  S
C1051      C1052   1.395       .  A
C1051      C1056   1.392       .  A
C1051      H1061   1.085       .  S
C1052      C1053   1.417       .  A
C1052      C1057   1.486       .  S
C1053      C1054   1.407       .  A
C1053      S1058   1.805       .  S
C1054      C1055   1.409       .  A
C1054      H1059   1.083       .  S
C1055      C1056   1.423       .  A
C1056      S1060   1.794       .  S
C1057      C1062   1.411       .  A
C1057      C1066   1.403       .  A
S1058      H1074   1.405       .  S
S1060      H1071   1.406       .  S
C1062      C1063   1.408       .  A
C1062      S1067   1.805       .  S
C1063      C1064   1.405       .  A
C1063      H1068   1.083       .  S
C1064      C1065   1.411       .  A
C1065      C1066   1.392       .  A
C1065      S1069   1.805       .  S
C1066      H1070   1.084       .  S
S1067      H1072   1.407       .  S
S1069      H1073   1.405       .  S
C1075      C1076   1.404       .  A
C1075      C1080   1.392       .  A
C1075      H1085   1.081       .  S
C1076      C1077   1.430       .  A
C1076      C1081   1.503       .  S
C1077      C1078   1.405       .  A
C1077      S1082   1.807       .  S
C1078      C1079   1.398       .  A
C1078      H1083   1.084       .  S
C1079      C1080   1.409       .  A
C1080      S1084   1.802       .  S
C1081      C1086   1.426       .  A
C1081      C1090   1.409       .  A
S1082      H1098   1.403       .  S
S1084      H1095   1.405       .  S
C1086      C1087   1.400       .  A
C1086      S1091   1.814       .  S
C1087      C1088   1.400       .  A
C1087      H1092   1.083       .  S
C1088      C1089   1.408       .  A
C1089      C1090   1.401       .  A
C1089      S1093   1.802       .  S
C1090      H1094   1.083       .  S
S1091      H1096   1.406       .  S
S1093      H1097   1.405       .  S
C1099      C1100   1.405       .  A
C1099      C1104   1.400       .  A
C1099      H1109   1.084       .  S
C1100      C1101   1.411       .  A
C1100      C1105   1.484       .  S
C1101      C1102   1.403       .  A
C1101      S1106   1.806   1_545  S
C1102      C1103   1.409       .  A
C1102      H1107   1.084   1_545  S
C1103      C1104   1.415       .  A
C1104      S1108   1.803       .  S
C1105      C1110   1.408       .  A
C1105      C1114   1.401       .  A
S1106      H1122   1.403       .  S
S1108      H1119   1.407       .  S
C1110      C1111   1.408       .  A
C1110      S1115   1.805       .  S
C1111      C1112   1.409       .  A
C1111      H1116   1.083       .  S
C1112      C1113   1.415       .  A
C1113      C1114   1.398       .  A
C1113      S1117   1.802       .  S
C1114      H1118   1.084       .  S
S1115      H1120   1.407       .  S
S1117      H1121   1.401       .  S
C1123      C1124   1.408       .  A
C1123      C1128   1.403       .  A
C1123      H1133   1.081       .  S
C1124      C1125   1.414       .  A
C1124      C1129   1.497       .  S
C1125      C1126   1.402       .  A
C1125      S1130   1.804       .  S
C1126      C1127   1.410       .  A
C1126      H1131   1.084       .  S
C1127      C1128   1.414       .  A
C1128      S1132   1.802       .  S
C1129      C1134   1.416       .  A
C1129      C1138   1.405       .  A
S1130      H1146   1.406       .  S
S1132      H1143   1.406   1_565  S
C1134      C1135   1.407       .  A
C1134      S1139   1.805       .  S
C1135      C1136   1.403       .  A
C1135      H1140   1.083       .  S
C1136      C1137   1.413       .  A
C1137      C1138   1.400       .  A
C1137      S1141   1.803       .  S
C1138      H1142   1.083       .  S
S1139      H1144   1.407       .  S
S1141      H1145   1.407       .  S
C1147      C1148   1.404       .  A
C1147      C1152   1.399       .  A
C1147      H1157   1.084       .  S
C1148      C1149   1.413       .  A
C1148      C1153   1.487       .  S
C1149      C1150   1.400       .  A
C1149      S1154   1.803       .  S
C1150      C1151   1.405       .  A
C1150      H1155   1.084       .  S
C1151      C1152   1.414       .  A
C1152      S1156   1.804       .  S
C1153      C1158   1.415       .  A
C1153      C1162   1.403       .  A
S1154      H1170   1.407       .  S
S1156      H1167   1.400       .  S
C1158      C1159   1.402       .  A
C1158      S1163   1.809       .  S
C1159      C1160   1.402       .  A
C1159      H1164   1.083       .  S
C1160      C1161   1.416       .  A
C1161      C1162   1.401       .  A
C1161      S1165   1.804   1_545  S
C1162      H1166   1.084       .  S
S1163      H1168   1.407       .  S
S1165      H1169   1.407   1_565  S
C1171      C1172   1.401       .  A
C1171      C1176   1.402       .  A
C1171      H1181   1.084       .  S
C1172      C1173   1.416       .  A
C1172      C1177   1.489       .  S
C1173      C1174   1.403       .  A
C1173      S1178   1.804       .  S
C1174      C1175   1.403       .  A
C1174      H1179   1.084       .  S
C1175      C1176   1.415       .  A
C1176      S1180   1.802       .  S
C1177      C1182   1.414       .  A
C1177      C1186   1.401       .  A
S1178      H1194   1.406       .  S
S1180      H1191   1.407       .  S
C1182      C1183   1.405       .  A
C1182      S1187   1.805   1_556  S
C1183      C1184   1.402       .  A
C1183      H1188   1.083       .  S
C1184      C1185   1.416       .  A
C1185      C1186   1.402       .  A
C1185      S1189   1.804       .  S
C1186      H1190   1.084       .  S
S1187      H1192   1.406       .  S
S1189      H1193   1.407       .  S
C1195      C1196   1.405       .  A
C1195      C1200   1.405       .  A
C1195      H1205   1.084       .  S
C1196      C1197   1.412       .  A
C1196      C1201   1.495       .  S
C1197      C1198   1.405       .  A
C1197      S1202   1.802       .  S
C1198      C1199   1.410       .  A
C1198      H1203   1.084       .  S
C1199      C1200   1.416       .  A
C1200      S1204   1.803       .  S
C1201      C1206   1.412       .  A
C1201      C1210   1.401       .  A
S1202      H1218   1.404       .  S
S1204      H1215   1.405       .  S
C1206      C1207   1.407       .  A
C1206      S1211   1.798   1_556  S
C1207      C1208   1.401       .  A
C1207      H1212   1.083   1_556  S
C1208      C1209   1.419       .  A
C1209      C1210   1.407       .  A
C1209      S1213   1.802       .  S
C1210      H1214   1.083       .  S
S1211      H1216   1.405       .  S
S1213      H1217   1.407       .  S
C1219      C1220   1.402       .  A
C1219      C1224   1.403       .  A
C1219      H1229   1.084       .  S
C1220      C1221   1.414       .  A
C1220      C1225   1.488       .  S
C1221      C1222   1.400       .  A
C1221      S1226   1.805       .  S
C1222      C1223   1.406       .  A
C1222      H1227   1.083       .  S
C1223      C1224   1.420       .  A
C1224      S1228   1.805       .  S
C1225      C1230   1.411       .  A
C1225      C1234   1.404       .  A
S1226      H1242   1.406       .  S
S1228      H1239   1.407       .  S
C1230      C1231   1.405       .  A
C1230      S1235   1.806       .  S
C1231      C1232   1.405       .  A
C1231      H1236   1.083       .  S
C1232      C1233   1.411       .  A
C1233      C1234   1.401       .  A
C1233      S1237   1.802       .  S
C1234      H1238   1.084       .  S
S1235      H1240   1.407       .  S
S1237      H1241   1.405       .  S
C1243      C1244   1.402       .  A
C1243      C1248   1.397       .  A
C1243      H1253   1.083       .  S
C1244      C1245   1.418       .  A
C1244      C1249   1.492       .  S
C1245      C1246   1.403       .  A
C1245      S1250   1.803       .  S
C1246      C1247   1.402       .  A
C1246      H1251   1.084       .  S
C1247      C1248   1.415       .  A
C1248      S1252   1.805       .  S
C1249      C1254   1.413       .  A
C1249      C1258   1.404       .  A
S1250      H1266   1.407       .  S
S1252      H1263   1.407       .  S
C1254      C1255   1.409       .  A
C1254      S1259   1.807       .  S
C1255      C1256   1.406       .  A
C1255      H1260   1.083       .  S
C1256      C1257   1.412       .  A
C1257      C1258   1.397       .  A
C1257      S1261   1.803       .  S
C1258      H1262   1.084       .  S
S1259      H1264   1.406       .  S
S1261      H1265   1.402       .  S
C1267      C1268   1.401       .  A
C1267      C1272   1.399       .  A
C1267      H1277   1.084       .  S
C1268      C1269   1.416       .  A
C1268      C1273   1.486       .  S
C1269      C1270   1.400       .  A
C1269      S1274   1.805       .  S
C1270      C1271   1.404       .  A
C1270      H1275   1.084       .  S
C1271      C1272   1.420       .  A
C1272      S1276   1.805       .  S
C1273      C1278   1.412       .  A
C1273      C1282   1.405       .  A
S1274      H1290   1.407       .  S
S1276      H1287   1.407       .  S
C1278      C1279   1.401       .  A
C1278      S1283   1.807       .  S
C1279      C1280   1.403       .  A
C1279      H1284   1.083       .  S
C1280      C1281   1.409       .  A
C1281      C1282   1.400       .  A
C1281      S1285   1.802       .  S
C1282      H1286   1.084       .  S
S1283      H1288   1.407       .  S
S1285      H1289   1.405       .  S
C1291      C1292   1.405       .  A
C1291      C1296   1.399       .  A
C1291      H1301   1.084       .  S
C1292      C1293   1.414       .  A
C1292      C1297   1.493       .  S
C1293      C1294   1.407       .  A
C1293      S1298   1.805       .  S
C1294      C1295   1.411       .  A
C1294      H1299   1.084       .  S
C1295      C1296   1.411       .  A
C1296      S1300   1.796   1_556  S
C1297      C1302   1.411       .  A
C1297      C1306   1.405       .  A
S1298      H1314   1.405       .  S
S1300      H1311   1.405       .  S
C1302      C1303   1.409       .  A
C1302      S1307   1.806       .  S
C1303      C1304   1.410       .  A
C1303      H1308   1.083       .  S
C1304      C1305   1.413       .  A
C1305      C1306   1.401       .  A
C1305      S1309   1.803       .  S
C1306      H1310   1.084       .  S
S1307      H1312   1.407       .  S
S1309      H1313   1.402       .  S
C1315      C1316   1.401       .  A
C1315      C1320   1.397       .  A
C1315      H1325   1.084       .  S
C1316      C1317   1.418       .  A
C1316      C1321   1.486       .  S
C1317      C1318   1.401       .  A
C1317      S1322   1.805       .  S
C1318      C1319   1.403       .  A
C1318      H1323   1.084       .  S
C1319      C1320   1.420       .  A
C1320      S1324   1.807       .  S
C1321      C1326   1.413       .  A
C1321      C1330   1.402       .  A
S1322      H1338   1.406       .  S
S1324      H1335   1.407       .  S
C1326      C1327   1.405       .  A
C1326      S1331   1.805       .  S
C1327      C1328   1.402       .  A
C1327      H1332   1.083       .  S
C1328      C1329   1.410       .  A
C1329      C1330   1.398       .  A
C1329      S1333   1.808       .  S
C1330      H1334   1.083       .  S
S1331      H1336   1.407       .  S
S1333      H1337   1.407       .  S
C1339      C1340   1.406       .  A
C1339      C1344   1.401       .  A
C1339      H1349   1.084       .  S
C1340      C1341   1.413       .  A
C1340      C1345   1.491       .  S
C1341      C1342   1.403       .  A
C1341      S1346   1.803       .  S
C1342      C1343   1.407       .  A
C1342      H1347   1.084       .  S
C1343      C1344   1.412       .  A
C1344      S1348   1.803       .  S
C1345      C1350   1.414       .  A
C1345      C1354   1.402       .  A
S1346      H1362   1.406       .  S
S1348      H1359   1.402       .  S
C1350      C1351   1.404       .  A
C1350      S1355   1.804   1_556  S
C1351      C1352   1.402       .  A
C1351      H1356   1.083       .  S
C1352      C1353   1.418       .  A
C1353      C1354   1.403       .  A
C1353      S1357   1.804       .  S
C1354      H1358   1.083       .  S
S1355      H1360   1.404       .  S
S1357      H1361   1.407       .  S
C1363      C1364   1.405       .  A
C1363      C1368   1.399       .  A
C1363      H1373   1.084       .  S
C1364      C1365   1.415       .  A
C1364      C1369   1.482       .  S
C1365      C1366   1.394       .  A
C1365      S1370   1.805       .  S
C1366      C1367   1.400       .  A
C1366      H1371   1.085       .  S
C1367      C1368   1.409       .  A
C1368      S1372   1.803       .  S
C1369      C1374   1.414       .  A
C1369      C1378   1.399       .  A
S1370      H1386   1.407       .  S
S1372      H1383   1.405       .  S
C1374      C1375   1.404       .  A
C1374      S1379   1.808       .  S
C1375      C1376   1.404       .  A
C1375      H1380   1.082       .  S
C1376      C1377   1.418       .  A
C1377      C1378   1.394       .  A
C1377      S1381   1.805       .  S
C1378      H1382   1.084       .  S
S1379      H1384   1.407       .  S
S1381      H1385   1.407       .  S
C1387      C1388   1.405       .  A
C1387      C1392   1.398       .  A
C1387      H1397   1.084       .  S
C1388      C1389   1.410       .  A
C1388      C1393   1.480       .  S
C1389      C1390   1.399       .  A
C1389      S1394   1.803   1_545  S
C1390      C1391   1.406       .  A
C1390      H1395   1.084   1_545  S
C1391      C1392   1.413       .  A
C1392      S1396   1.804       .  S
C1393      C1398   1.411       .  A
C1393      C1402   1.401       .  A
S1394      H1410   1.406       .  S
S1396      H1407   1.407       .  S
C1398      C1399   1.403       .  A
C1398      S1403   1.807       .  S
C1399      C1400   1.403       .  A
C1399      H1404   1.083       .  S
C1400      C1401   1.413       .  A
C1401      C1402   1.398       .  A
C1401      S1405   1.802       .  S
C1402      H1406   1.084       .  S
S1403      H1408   1.407       .  S
S1405      H1409   1.407       .  S
C1411      C1412   1.406       .  A
C1411      C1416   1.402       .  A
C1411      H1421   1.081       .  S
C1412      C1413   1.413       .  A
C1412      C1417   1.494       .  S
C1413      C1414   1.403       .  A
C1413      S1418   1.806       .  S
C1414      C1415   1.411       .  A
C1414      H1419   1.084       .  S
C1415      C1416   1.412       .  A
C1416      S1420   1.802       .  S
C1417      C1422   1.414       .  A
C1417      C1426   1.405       .  A
S1418      H1434   1.406       .  S
S1420      H1431   1.407   1_565  S
C1422      C1423   1.406       .  A
C1422      S1427   1.807       .  S
C1423      C1424   1.406       .  A
C1423      H1428   1.083       .  S
C1424      C1425   1.413       .  A
C1425      C1426   1.401       .  A
C1425      S1429   1.803       .  S
C1426      H1430   1.084       .  S
S1427      H1432   1.407       .  S
S1429      H1433   1.403       .  S
C1435      C1436   1.409       .  A
C1435      C1440   1.407       .  A
C1435      H1445   1.082       .  S
C1436      C1437   1.413       .  A
C1436      C1441   1.499       .  S
C1437      C1438   1.404       .  A
C1437      S1442   1.805       .  S
C1438      C1439   1.410       .  A
C1438      H1443   1.084       .  S
C1439      C1440   1.413       .  A
C1440      S1444   1.799   1_455  S
C1441      C1446   1.413       .  A
C1441      C1450   1.404       .  A
S1442      H1458   1.405       .  S
S1444      H1455   1.404       .  S
C1446      C1447   1.410       .  A
C1446      S1451   1.806       .  S
C1447      C1448   1.410       .  A
C1447      H1452   1.083       .  S
C1448      C1449   1.415       .  A
C1449      C1450   1.407       .  A
C1449      S1453   1.806       .  S
C1450      H1454   1.083       .  S
S1451      H1456   1.407       .  S
S1453      H1457   1.407       .  S
C1459      C1460   1.407       .  A
C1459      C1464   1.407       .  A
C1459      H1469   1.083       .  S
C1460      C1461   1.412       .  A
C1460      C1465   1.489       .  S
C1461      C1462   1.398       .  A
C1461      S1466   1.804       .  S
C1462      C1463   1.406       .  A
C1462      H1467   1.084       .  S
C1463      C1464   1.414       .  A
C1464      S1468   1.807       .  S
C1465      C1470   1.413       .  A
C1465      C1474   1.403       .  A
S1466      H1482   1.406       .  S
S1468      H1479   1.407       .  S
C1470      C1471   1.406       .  A
C1470      S1475   1.805       .  S
C1471      C1472   1.402       .  A
C1471      H1476   1.083       .  S
C1472      C1473   1.413       .  A
C1473      C1474   1.401       .  A
C1473      S1477   1.808       .  S
C1474      H1478   1.083       .  S
S1475      H1480   1.407       .  S
S1477      H1481   1.407       .  S
C1483      C1484   1.402       .  A
C1483      C1488   1.404       .  A
C1483      H1493   1.084       .  S
C1484      C1485   1.417       .  A
C1484      C1489   1.491       .  S
C1485      C1486   1.403       .  A
C1485      S1490   1.805       .  S
C1486      C1487   1.403       .  A
C1486      H1491   1.084       .  S
C1487      C1488   1.420       .  A
C1488      S1492   1.804       .  S
C1489      C1494   1.412       .  A
C1489      C1498   1.402       .  A
S1490      H1506   1.405       .  S
S1492      H1503   1.407       .  S
C1494      C1495   1.407       .  A
C1494      S1499   1.805       .  S
C1495      C1496   1.404       .  A
C1495      H1500   1.083       .  S
C1496      C1497   1.415       .  A
C1497      C1498   1.402       .  A
C1497      S1501   1.803       .  S
C1498      H1502   1.084       .  S
S1499      H1504   1.407       .  S
S1501      H1505   1.407       .  S
C1507      C1508   1.403       .  A
C1507      C1512   1.402       .  A
C1507      H1517   1.084       .  S
C1508      C1509   1.417       .  A
C1508      C1513   1.494       .  S
C1509      C1510   1.405       .  A
C1509      S1514   1.803       .  S
C1510      C1511   1.404       .  A
C1510      H1515   1.084       .  S
C1511      C1512   1.416       .  A
C1512      S1516   1.803       .  S
C1513      C1518   1.409       .  A
C1513      C1522   1.405       .  A
S1514      H1530   1.407       .  S
S1516      H1527   1.406       .  S
C1518      C1519   1.407       .  A
C1518      S1523   1.806       .  S
C1519      C1520   1.411       .  A
C1519      H1524   1.083       .  S
C1520      C1521   1.413       .  A
C1521      C1522   1.402       .  A
C1521      S1525   1.802       .  S
C1522      H1526   1.079       .  S
S1523      H1528   1.407       .  S
S1525      H1529   1.406       .  S
C1531      C1532   1.403       .  A
C1531      C1536   1.403       .  A
C1531      H1541   1.084       .  S
C1532      C1533   1.414       .  A
C1532      C1537   1.491       .  S
C1533      C1534   1.404       .  A
C1533      S1538   1.803       .  S
C1534      C1535   1.405       .  A
C1534      H1539   1.084       .  S
C1535      C1536   1.415       .  A
C1536      S1540   1.802       .  S
C1537      C1542   1.408       .  A
C1537      C1546   1.406       .  A
S1538      H1554   1.407       .  S
S1540      H1551   1.407       .  S
C1542      C1543   1.405       .  A
C1542      S1547   1.806       .  S
C1543      C1544   1.411       .  A
C1543      H1548   1.083       .  S
C1544      C1545   1.415       .  A
C1545      C1546   1.404       .  A
C1545      S1549   1.803       .  S
C1546      H1550   1.084       .  S
S1547      H1552   1.407       .  S
S1549      H1553   1.407       .  S
C1555      C1556   1.401       .  A
C1555      C1560   1.398       .  A
C1555      H1565   1.084       .  S
C1556      C1557   1.416       .  A
C1556      C1561   1.487       .  S
C1557      C1558   1.402       .  A
C1557      S1562   1.804       .  S
C1558      C1559   1.403       .  A
C1558      H1563   1.084       .  S
C1559      C1560   1.413       .  A
C1560      S1564   1.803       .  S
C1561      C1566   1.416       .  A
C1561      C1570   1.400       .  A
S1562      H1578   1.406       .  S
S1564      H1575   1.407       .  S
C1566      C1567   1.406       .  A
C1566      S1571   1.807       .  S
C1567      C1568   1.402       .  A
C1567      H1572   1.083       .  S
C1568      C1569   1.415       .  A
C1569      C1570   1.398       .  A
C1569      S1573   1.804       .  S
C1570      H1574   1.084       .  S
S1571      H1576   1.406       .  S
S1573      H1577   1.407       .  S
C1579      C1580   1.412       .  A
C1579      C1584   1.412       .  A
C1579      H1589   1.083       .  S
C1580      C1581   1.410       .  A
C1580      C1585   1.494       .  S
C1581      C1582   1.391       .  A
C1581      S1586   1.808       .  S
C1582      C1583   1.407       .  A
C1582      H1587   1.077       .  S
C1583      C1584   1.414       .  A
C1584      S1588   1.800       .  S
C1585      C1590   1.414       .  A
C1585      C1594   1.407       .  A
S1586      H1602   1.406       .  S
S1588      H1599   1.406       .  S
C1590      C1591   1.400       .  A
C1590      S1595   1.811       .  S
C1591      C1592   1.405       .  A
C1591      H1596   1.083       .  S
C1592      C1593   1.412       .  A
C1593      C1594   1.406       .  A
C1593      S1597   1.802       .  S
C1594      H1598   1.083       .  S
S1595      H1600   1.406       .  S
S1597      H1601   1.406       .  S
C1603      C1604   1.398       .  A
C1603      C1608   1.394       .  A
C1603      H1613   1.084       .  S
C1604      C1605   1.417       .  A
C1604      C1609   1.490       .  S
C1605      C1606   1.406       .  A
C1605      S1610   1.804       .  S
C1606      C1607   1.407       .  A
C1606      H1611   1.083       .  S
C1607      C1608   1.422       .  A
C1608      S1612   1.800       .  S
C1609      C1614   1.416       .  A
C1609      C1618   1.406       .  A
S1610      H1626   1.407       .  S
S1612      H1623   1.407       .  S
C1614      C1615   1.399       .  A
C1614      S1619   1.808       .  S
C1615      C1616   1.401       .  A
C1615      H1620   1.084       .  S
C1616      C1617   1.410       .  A
C1617      C1618   1.402       .  A
C1617      S1621   1.802       .  S
C1618      H1622   1.084       .  S
S1619      H1624   1.407       .  S
S1621      H1625   1.405       .  S
C1627      C1628   1.398       .  A
C1627      C1632   1.403       .  A
C1627      H1637   1.084       .  S
C1628      C1629   1.416       .  A
C1628      C1633   1.492       .  S
C1629      C1630   1.407       .  A
C1629      S1634   1.801   1_455  S
C1630      C1631   1.404       .  A
C1630      H1635   1.084       .  S
C1631      C1632   1.424       .  A
C1632      S1636   1.805       .  S
C1633      C1638   1.410       .  A
C1633      C1642   1.402       .  A
S1634      H1650   1.402       .  S
S1636      H1647   1.407       .  S
C1638      C1639   1.412       .  A
C1638      S1643   1.803       .  S
C1639      C1640   1.410       .  A
C1639      H1644   1.083       .  S
C1640      C1641   1.414       .  A
C1641      C1642   1.401       .  A
C1641      S1645   1.802       .  S
C1642      H1646   1.084       .  S
S1643      H1648   1.407       .  S
S1645      H1649   1.406       .  S
C1651      C1652   1.405       .  A
C1651      C1656   1.400       .  A
C1651      H1661   1.084       .  S
C1652      C1653   1.417       .  A
C1652      C1657   1.491       .  S
C1653      C1654   1.401       .  A
C1653      S1658   1.805       .  S
C1654      C1655   1.405       .  A
C1654      H1659   1.084       .  S
C1655      C1656   1.411       .  A
C1656      S1660   1.803       .  S
C1657      C1662   1.409       .  A
C1657      C1666   1.407       .  A
S1658      H1674   1.405       .  S
S1660      H1671   1.403       .  S
C1662      C1663   1.403       .  A
C1662      S1667   1.807       .  S
C1663      C1664   1.410       .  A
C1663      H1668   1.082       .  S
C1664      C1665   1.415       .  A
C1665      C1666   1.406       .  A
C1665      S1669   1.808       .  S
C1666      H1670   1.083       .  S
S1667      H1672   1.407       .  S
S1669      H1673   1.407       .  S
C1675      C1676   1.404       .  A
C1675      C1680   1.397       .  A
C1675      H1685   1.084       .  S
C1676      C1677   1.423       .  A
C1676      C1681   1.491       .  S
C1677      C1678   1.403       .  A
C1677      S1682   1.809       .  S
C1678      C1679   1.401       .  A
C1678      H1683   1.084       .  S
C1679      C1680   1.414       .  A
C1680      S1684   1.804       .  S
C1681      C1686   1.415       .  A
C1681      C1690   1.404       .  A
S1682      H1698   1.404       .  S
S1684      H1695   1.406       .  S
C1686      C1687   1.407       .  A
C1686      S1691   1.806       .  S
C1687      C1688   1.403       .  A
C1687      H1692   1.083       .  S
C1688      C1689   1.411       .  A
C1689      C1690   1.394       .  A
C1689      S1693   1.804       .  S
C1690      H1694   1.084       .  S
S1691      H1696   1.407       .  S
S1693      H1697   1.407       .  S
C1699      C1700   1.402       .  A
C1699      C1704   1.403       .  A
C1699      H1709   1.084       .  S
C1700      C1701   1.417       .  A
C1700      C1705   1.492       .  S
C1701      C1702   1.403       .  A
C1701      S1706   1.805       .  S
C1702      C1703   1.403       .  A
C1702      H1707   1.084       .  S
C1703      C1704   1.418       .  A
C1704      S1708   1.803       .  S
C1705      C1710   1.411       .  A
C1705      C1714   1.402       .  A
S1706      H1722   1.407       .  S
S1708      H1719   1.407       .  S
C1710      C1711   1.408       .  A
C1710      S1715   1.806       .  S
C1711      C1712   1.408       .  A
C1711      H1716   1.083       .  S
C1712      C1713   1.415       .  A
C1713      C1714   1.399       .  A
C1713      S1717   1.803       .  S
C1714      H1718   1.084       .  S
S1715      H1720   1.407       .  S
S1717      H1721   1.401       .  S
C1723      C1724   1.404       .  A
C1723      C1728   1.399       .  A
C1723      H1733   1.081       .  S
C1724      C1725   1.412       .  A
C1724      C1729   1.489       .  S
C1725      C1726   1.405       .  A
C1725      S1730   1.803       .  S
C1726      C1727   1.409       .  A
C1726      H1731   1.084       .  S
C1727      C1728   1.411       .  A
C1728      S1732   1.801       .  S
C1729      C1734   1.414       .  A
C1729      C1738   1.401       .  A
S1730      H1746   1.406       .  S
S1732      H1743   1.405       .  S
C1734      C1735   1.405       .  A
C1734      S1739   1.806       .  S
C1735      C1736   1.401       .  A
C1735      H1740   1.083       .  S
C1736      C1737   1.415       .  A
C1737      C1738   1.400       .  A
C1737      S1741   1.803       .  S
C1738      H1742   1.083       .  S
S1739      H1744   1.407       .  S
S1741      H1745   1.407       .  S
C1747      C1748   1.406       .  A
C1747      C1752   1.403       .  A
C1747      H1757   1.084       .  S
C1748      C1749   1.415       .  A
C1748      C1753   1.492       .  S
C1749      C1750   1.400       .  A
C1749      S1754   1.804       .  S
C1750      C1751   1.405       .  A
C1750      H1755   1.085       .  S
C1751      C1752   1.411       .  A
C1752      S1756   1.802       .  S
C1753      C1758   1.416       .  A
C1753      C1762   1.400       .  A
S1754      H1770   1.407       .  S
S1756      H1767   1.404       .  S
C1758      C1759   1.410       .  A
C1758      S1763   1.808       .  S
C1759      C1760   1.405       .  A
C1759      H1764   1.082       .  S
C1760      C1761   1.421       .  A
C1761      C1762   1.399       .  A
C1761      S1765   1.805       .  S
C1762      H1766   1.084       .  S
S1763      H1768   1.406       .  S
S1765      H1769   1.406       .  S
C1771      C1772   1.402       .  A
C1771      C1776   1.402       .  A
C1771      H1781   1.084       .  S
C1772      C1773   1.414       .  A
C1772      C1777   1.491       .  S
C1773      C1774   1.405       .  A
C1773      S1778   1.803       .  S
C1774      C1775   1.405       .  A
C1774      H1779   1.084       .  S
C1775      C1776   1.415       .  A
C1776      S1780   1.802       .  S
C1777      C1782   1.407       .  A
C1777      C1786   1.406       .  A
S1778      H1794   1.407       .  S
S1780      H1791   1.407       .  S
C1782      C1783   1.405       .  A
C1782      S1787   1.806       .  S
C1783      C1784   1.410       .  A
C1783      H1788   1.083       .  S
C1784      C1785   1.415       .  A
C1785      C1786   1.407       .  A
C1785      S1789   1.808       .  S
C1786      H1790   1.083       .  S
S1787      H1792   1.407       .  S
S1789      H1793   1.407       .  S
C1795      C1796   1.404       .  A
C1795      C1800   1.404       .  A
C1795      H1805   1.084       .  S
C1796      C1797   1.419       .  A
C1796      C1801   1.494       .  S
C1797      C1798   1.402       .  A
C1797      S1802   1.804   1_455  S
C1798      C1799   1.400       .  A
C1798      H1803   1.083       .  S
C1799      C1800   1.415       .  A
C1800      S1804   1.804       .  S
C1801      C1806   1.415       .  A
C1801      C1810   1.402       .  A
S1802      H1818   1.406       .  S
S1804      H1815   1.406       .  S
C1806      C1807   1.408       .  A
C1806      S1811   1.806       .  S
C1807      C1808   1.404       .  A
C1807      H1812   1.083       .  S
C1808      C1809   1.415       .  A
C1809      C1810   1.400       .  A
C1809      S1813   1.803       .  S
C1810      H1814   1.084       .  S
S1811      H1816   1.406       .  S
S1813      H1817   1.407       .  S
