geometry optimzed in LAMMPS
_audit_creation_date              2020-12-01 
_audit_creation_method            'lammps2cif' 
_symmetry_space_group_name_H-M    'P1' 
_symmetry_Int_Tables_number       1 
_symmetry_cell_setting            triclinic 
loop_ 
_symmetry_equiv_pos_as_xyz 
  x,y,z 
_cell_length_a                    39.86967756 
_cell_length_b                    39.82491324720839 
_cell_length_c                    39.84273367991319 
_cell_angle_alpha                 90.12304962483434 
_cell_angle_beta                  90.00959822534531 
_cell_angle_gamma                 89.82899481448828 
loop_ 
_atom_site_label 
_atom_site_type_symbol 
_atom_site_fract_x 
_atom_site_fract_y 
_atom_site_fract_z 
_atom_site_charge 
O1          O  0.65362068  0.24190360  0.90073375    -0.74100
O2          O  0.56443300  0.27707879  0.89237154    -0.74100
O3          O  0.60614569  0.24123359  0.85221337    -0.74200
O4          O  0.61225603  0.27766564  0.94109765    -0.74200
O5          O  0.63323087  0.32496724  0.92024745    -0.74200
O6          O  0.62593679  0.28912994  0.83128470    -0.74100
O7          O  0.58506702  0.32471213  0.87190336    -0.74100
O8          O  0.67403181  0.28921293  0.87946475    -0.74200
Ni9        Ni  0.60831965  0.25781493  0.89739047     1.25400
Ni10       Ni  0.63026268  0.30871625  0.87504501     1.25400
C11         C  0.67865782  0.25971342  0.89138174     0.88100
C12         C  0.55997092  0.30646203  0.88002212     0.88000
C13         C  0.61500752  0.25920233  0.82710877     0.88000
C14         C  0.62449186  0.30706619  0.94545616     0.88200
O15         O  0.25043948  0.63436569  0.89382537    -0.74100
O16         O  0.28333955  0.54464992  0.88499491    -0.74100
O17         O  0.28501071  0.59186566  0.93381435    -0.74200
O18         O  0.24860147  0.58744955  0.84532294    -0.74200
O19         O  0.29660282  0.60683609  0.82435097    -0.74200
O20         O  0.33295024  0.61135609  0.91307473    -0.74100
O21         O  0.33125021  0.56411449  0.86421463    -0.74100
O22         O  0.29845890  0.65399537  0.87313679    -0.74200
Ni23       Ni  0.26519885  0.58881361  0.89025898     1.25400
Ni24       Ni  0.31658454  0.60970808  0.86798345     1.25400
C25         C  0.26876433  0.65895126  0.88440848     0.88100
C26         C  0.31266266  0.53944748  0.87295403     0.88000
C27         C  0.31482234  0.60284001  0.93820165     0.88000
C28         C  0.26634207  0.59690444  0.82030053     0.88200
O29         O  0.33284548  0.36251660  0.77573924    -0.74100
O30         O  0.42010857  0.35354502  0.81452726    -0.74100
O31         O  0.38043237  0.31450104  0.77582227    -0.74200
O32         O  0.37214627  0.40188921  0.81422801    -0.74200
O33         O  0.34926722  0.37972402  0.86017486    -0.74200
O34         O  0.35799748  0.29204526  0.82174620    -0.74100
O35         O  0.39781371  0.33122177  0.86053613    -0.74100
O36         O  0.31014475  0.34038834  0.82175890    -0.74200
Ni37       Ni  0.37729328  0.35892353  0.79354584     1.25400
Ni38       Ni  0.35312150  0.33505943  0.84279781     1.25400
C39         C  0.30709425  0.35283059  0.79226586     0.88100
C40         C  0.42356596  0.34036116  0.84364524     0.88000
C41         C  0.37005177  0.28888170  0.79210671     0.88000
C42         C  0.35817871  0.40530275  0.84293587     0.88200
O43         O  0.66804763  0.61440960  0.20134748    -0.74100
O44         O  0.57897464  0.61676737  0.16652589    -0.74100
O45         O  0.61775152  0.66027175  0.20129995    -0.74200
O46         O  0.62903255  0.57118488  0.16694561    -0.74200
O47         O  0.60985069  0.55033364  0.21504624    -0.74200
O48         O  0.59808297  0.63957452  0.24920166    -0.74100
O49         O  0.55925604  0.59580227  0.21429049    -0.74100
O50         O  0.64858456  0.59437289  0.24982741    -0.74200
Ni51       Ni  0.62408503  0.61641109  0.18234038     1.25400
Ni52       Ni  0.60320584  0.59423870  0.23380441     1.25400
C53         C  0.67296466  0.60420297  0.23136836     0.88100
C54         C  0.55435489  0.60663740  0.18443322     0.88000
C55         C  0.60641020  0.66472854  0.23110516     0.88000
C56         C  0.62148443  0.54599292  0.18536893     0.88200
O57         O  0.68316206  0.29921931  0.14658991    -0.74100
O58         O  0.64339622  0.38662992  0.15316827    -0.74100
O59         O  0.64542879  0.33765768  0.10527015    -0.74200
O60         O  0.68104650  0.34785928  0.19405287    -0.74200
O61         O  0.72733491  0.37053234  0.17280909    -0.74200
O62         O  0.69183964  0.36018241  0.08411176    -0.74100
O63         O  0.68975453  0.40905044  0.13171416    -0.74100
O64         O  0.72955297  0.32183799  0.12553865    -0.74200
Ni65       Ni  0.66153552  0.34208253  0.15044367     1.25400
Ni66       Ni  0.71119541  0.36623595  0.12771703     1.25400
C67         C  0.71307628  0.29605857  0.13526889     0.88100
C68         C  0.66040789  0.41239946  0.14433626     0.88000
C69         C  0.66302954  0.34666005  0.07992340     0.88000
C70         C  0.71013607  0.36082022  0.19815653     0.88200
O71         O  0.38551708  0.70834464  0.15989970    -0.74100
O72         O  0.37273382  0.66837163  0.07340703    -0.74100
O73         O  0.33711146  0.71135910  0.11267948    -0.74200
O74         O  0.42114054  0.66579152  0.12105989    -0.74200
O75         O  0.39565781  0.62262475  0.14573552    -0.74200
O76         O  0.31116592  0.66715971  0.13513440    -0.74100
O77         O  0.34772155  0.62444782  0.09717262    -0.74100
O78         O  0.35902240  0.66517303  0.18320118    -0.74200
Ni79       Ni  0.38006144  0.68995267  0.11577794     1.25400
Ni80       Ni  0.35249186  0.64324247  0.14106281     1.25400
C81         C  0.37425091  0.69334206  0.18593904     0.88100
C82         C  0.35786478  0.63998264  0.07099183     0.88000
C83         C  0.31040776  0.69682308  0.12285267     0.88000
C84         C  0.42241818  0.63738568  0.13597694     0.88200
O85         O  0.64538653  0.22770109  0.61909795    -0.74100
O86         O  0.55904134  0.18628418  0.62494968    -0.74100
O87         O  0.59730470  0.22416634  0.66667392    -0.74200
O88         O  0.60759868  0.18951329  0.57715523    -0.74200
O89         O  0.63040484  0.14296555  0.59798997    -0.74200
O90         O  0.62152774  0.17796581  0.68666053    -0.74100
O91         O  0.58277445  0.14026135  0.64608811    -0.74100
O92         O  0.66905712  0.18073033  0.63844623    -0.74200
Ni93       Ni  0.60140238  0.20855962  0.62114616     1.25400
Ni94       Ni  0.62671222  0.15884741  0.64297321     1.25400
C95         C  0.67138968  0.21099340  0.62798071     0.88100
C96         C  0.55660441  0.15665434  0.63713113     0.88000
C97         C  0.60820242  0.20687603  0.69152534     0.88000
C98         C  0.62115662  0.16057558  0.57278836     0.88200
O99         O  0.69300776  0.11531934  0.33097559    -0.74100
O100        O  0.64902134  0.12445246  0.41530651    -0.74100
O101        O  0.69007335  0.16336030  0.37895927    -0.74200
O102        O  0.65217236  0.07602267  0.36715153    -0.74200
O103        O  0.69661876  0.05322924  0.39220578    -0.74200
O104        O  0.73463669  0.14071439  0.40406954    -0.74100
O105        O  0.69326105  0.10148823  0.44077201    -0.74100
O106        O  0.73774881  0.09274315  0.35566037    -0.74200
Ni107      Ni  0.66948682  0.12051732  0.37226281     1.25400
Ni108      Ni  0.71711913  0.09615647  0.39918016     1.25400
C109        C  0.72243686  0.10248601  0.32911065     0.88100
C110        C  0.66424146  0.11542998  0.44207307     0.88000
C111        C  0.71864245  0.16649761  0.39333816     0.88000
C112        C  0.66856106  0.05007243  0.37685761     0.88200
O113        O  0.38157300  0.13421615  0.74182480    -0.74100
O114        O  0.37467787  0.04691085  0.70293148    -0.74100
O115        O  0.42196188  0.09568949  0.70342425    -0.74200
O116        O  0.33437922  0.08640703  0.74130831    -0.74200
O117        O  0.31199636  0.10785678  0.69463977    -0.74200
O118        O  0.39968480  0.11843962  0.65753676    -0.74100
O119        O  0.35289115  0.06919288  0.65656802    -0.74100
O120        O  0.35888036  0.15670553  0.69591912    -0.74200
Ni121      Ni  0.37899114  0.08988489  0.72392670     1.25400
Ni122      Ni  0.35510414  0.11376179  0.67444535     1.25400
C123        C  0.37100227  0.15981207  0.72554978     0.88100
C124        C  0.36222110  0.04350088  0.67349737     0.88000
C125        C  0.42539335  0.10949636  0.67462630     0.88000
C126        C  0.30889477  0.09632179  0.72442027     0.88200
O127        O  0.26156005  0.86635560  0.66003338    -0.74100
O128        O  0.29826856  0.85927795  0.57186407    -0.74100
O129        O  0.25928935  0.82020737  0.61090204    -0.74200
O130        O  0.30024956  0.90580701  0.62121942    -0.74200
O131        O  0.34634137  0.88203282  0.64211098    -0.74200
O132        O  0.30481124  0.79563654  0.63192294    -0.74100
O133        O  0.34411631  0.83483361  0.59247170    -0.74100
O134        O  0.30759802  0.84251285  0.68120986    -0.74200
Ni135      Ni  0.27835740  0.86382988  0.61520777     1.25400
Ni136      Ni  0.32747244  0.83789125  0.63760445     1.25400
C137        C  0.27826691  0.85514897  0.68508021     0.88100
C138        C  0.32690760  0.84530291  0.56740357     0.88000
C139        C  0.27481435  0.79373054  0.62029980     0.88000
C140        C  0.32957687  0.90831723  0.63402321     0.88200
O141        O  0.65341390  0.87273423  0.26452084    -0.74100
O142        O  0.56565453  0.86681708  0.30364206    -0.74100
O143        O  0.61493687  0.91429087  0.30271047    -0.74200
O144        O  0.60442225  0.82595185  0.26582940    -0.74200
O145        O  0.62723148  0.80417251  0.31199377    -0.74200
O146        O  0.63639713  0.89216386  0.34928112    -0.74100
O147        O  0.58788411  0.84420896  0.34964864    -0.74100
O148        O  0.67569655  0.85187671  0.31144092    -0.74200
Ni149      Ni  0.60878519  0.87087532  0.28258069     1.25400
Ni150      Ni  0.63255869  0.84743401  0.33227049     1.25400
C151        C  0.67896988  0.86306423  0.28149839     0.88100
C152        C  0.56215649  0.85316288  0.33253359     0.88000
C153        C  0.62791923  0.91786759  0.33193784     0.88000
C154        C  0.61417126  0.80046258  0.28284443     0.88200
O155        O  0.31673702  0.78355810  0.36718150    -0.74100
O156        O  0.40395940  0.82269166  0.36001618    -0.74100
O157        O  0.36568340  0.78369228  0.32012010    -0.74200
O158        O  0.35460492  0.82243212  0.40729702    -0.74200
O159        O  0.37834701  0.77727929  0.43048249    -0.74200
O160        O  0.38660077  0.73725931  0.34351402    -0.74100
O161        O  0.42651112  0.77660301  0.38212647    -0.74100
O162        O  0.33872237  0.73825576  0.39138740    -0.74200
Ni163      Ni  0.35954440  0.80477545  0.36288792     1.25400
Ni164      Ni  0.38346409  0.75577137  0.38774904     1.25400
C165        C  0.31315299  0.75450513  0.38048728     0.88100
C166        C  0.42982080  0.80582202  0.36908973     0.88000
C167        C  0.37719787  0.75376463  0.31761342     0.88000
C168        C  0.36384869  0.80586703  0.43322541     0.88200
O169        O  0.17738726  0.79134688  0.13480819    -0.74100
O170        O  0.08901208  0.82897416  0.14259384    -0.74100
O171        O  0.12838312  0.79045585  0.18219820    -0.74200
O172        O  0.13799866  0.82996152  0.09504310    -0.74200
O173        O  0.11570299  0.78421863  0.07198382    -0.74200
O174        O  0.10803793  0.74392255  0.15866582    -0.74100
O175        O  0.06772635  0.78252096  0.12002869    -0.74100
O176        O  0.15582882  0.74577440  0.11072751    -0.74200
Ni177      Ni  0.13394138  0.81188930  0.13946325     1.25400
Ni178      Ni  0.11101931  0.76254978  0.11449850     1.25400
C179        C  0.18121414  0.76229393  0.12135449     0.88100
C180        C  0.06366132  0.81162378  0.13314105     0.88000
C181        C  0.11686648  0.76055603  0.18473401     0.88000
C182        C  0.12884326  0.81338077  0.06903044     0.88200
O183        O  0.81584924  0.84609988  0.19169375    -0.74100
O184        O  0.90424255  0.84067309  0.15459769    -0.74100
O185        O  0.86470085  0.79873385  0.18979750    -0.74200
O186        O  0.85561212  0.88823295  0.15637022    -0.74200
O187        O  0.87663992  0.90816491  0.20413283    -0.74200
O188        O  0.88603053  0.81886101  0.23734659    -0.74100
O189        O  0.92547809  0.86097990  0.20217283    -0.74100
O190        O  0.83692123  0.86583557  0.23946085    -0.74200
Ni191      Ni  0.85934605  0.84278093  0.17139495     1.25400
Ni192      Ni  0.88200542  0.86422888  0.22245286     1.25400
C193        C  0.81164901  0.85651777  0.22184808     0.88100
C194        C  0.92951741  0.84940850  0.17242162     0.88000
C195        C  0.87705409  0.79397395  0.21910381     0.88000
C196        C  0.86448567  0.91304588  0.17478609     0.88200
O197        O  0.23534728  0.86713515  0.84347854    -0.74100
O198        O  0.19517400  0.86114645  0.93039556    -0.74100
O199        O  0.23384446  0.82013928  0.89236181    -0.74200
O200        O  0.19655380  0.90814214  0.88114144    -0.74200
O201        O  0.15062786  0.88581378  0.85852231    -0.74200
O202        O  0.18773631  0.79830376  0.86971957    -0.74100
O203        O  0.14920791  0.83897815  0.90782395    -0.74100
O204        O  0.18941471  0.84507033  0.82078214    -0.74200
Ni205      Ni  0.21681825  0.86499406  0.88772253     1.25400
Ni206      Ni  0.16758834  0.84129878  0.86344712     1.25400
C207        C  0.21911723  0.85695536  0.81769442     0.88100
C208        C  0.16588307  0.84839218  0.93364712     0.88000
C209        C  0.21691527  0.79461328  0.88265162     0.88000
C210        C  0.16776830  0.91149465  0.86718518     0.88200
O211        O  0.12565240  0.16000009  0.81512846    -0.74100
O212        O  0.13566215  0.07180080  0.85113079    -0.74100
O213        O  0.17372791  0.11202683  0.81281564    -0.74200
O214        O  0.08737875  0.11991518  0.85350973    -0.74200
O215        O  0.06395539  0.09856089  0.80749390    -0.74200
O216        O  0.15057571  0.09072973  0.76665333    -0.74100
O217        O  0.11238573  0.05043148  0.80507624    -0.74100
O218        O  0.10232698  0.13883769  0.76899228    -0.74200
Ni219      Ni  0.13137848  0.11665111  0.83479828     1.25400
Ni220      Ni  0.10640040  0.09382357  0.78544626     1.25400
C221        C  0.11241242  0.16411804  0.78611727     0.88100
C222        C  0.12661846  0.04641826  0.83364230     0.88000
C223        C  0.17657552  0.09995565  0.78311297     0.88000
C224        C  0.06127174  0.11139404  0.83691343     0.88200
O225        O  0.80970455  0.11544715  0.19238265    -0.74100
O226        O  0.84657148  0.12315570  0.10407493    -0.74100
O227        O  0.80849052  0.16316180  0.14392432    -0.74200
O228        O  0.84744563  0.07547225  0.15254927    -0.74200
O229        O  0.80107175  0.05323878  0.13071602    -0.74200
O230        O  0.76209615  0.14031026  0.12270639    -0.74100
O231        O  0.80015738  0.10072572  0.08261182    -0.74100
O232        O  0.76340316  0.09288995  0.17068558    -0.74200
Ni233      Ni  0.82977524  0.12012847  0.14895434     1.25400
Ni234      Ni  0.78010545  0.09597603  0.12587057     1.25400
C235        C  0.78030408  0.10309884  0.19603737     0.88100
C236        C  0.82938152  0.11335045  0.07872563     0.88000
C237        C  0.77864048  0.16609774  0.13227620     0.88000
C238        C  0.83033143  0.04983185  0.14348599     0.88200
O239        O  0.83755122  0.21799489  0.90337836    -0.74100
O240        O  0.92465129  0.17950477  0.89007422    -0.74100
O241        O  0.88292419  0.21818148  0.85319473    -0.74200
O242        O  0.87927693  0.17939729  0.94062014    -0.74200
O243        O  0.85647551  0.13307510  0.91926141    -0.74200
O244        O  0.85915859  0.17246761  0.83163974    -0.74100
O245        O  0.90135835  0.13370502  0.86816022    -0.74100
O246        O  0.81428142  0.17148779  0.88269553    -0.74200
Ni247      Ni  0.88198233  0.20033969  0.89763775     1.25400
Ni248      Ni  0.85703279  0.15099492  0.87469889     1.25400
C249        C  0.81154696  0.20108432  0.89504249     0.88100
C250        C  0.92744141  0.15051723  0.87628902     0.88000
C251        C  0.87127224  0.20204371  0.82797752     0.88000
C252        C  0.86690416  0.15005294  0.94454042     0.88200
O253        O  0.22005440  0.59278789  0.66428770    -0.74100
O254        O  0.18280587  0.60024701  0.57617786    -0.74100
O255        O  0.22256160  0.63879857  0.61543779    -0.74200
O256        O  0.18067589  0.55355128  0.62566234    -0.74200
O257        O  0.13528876  0.57780239  0.64755838    -0.74200
O258        O  0.17698854  0.66404533  0.63606694    -0.74100
O259        O  0.13721656  0.62478934  0.59738282    -0.74100
O260        O  0.17481577  0.61783886  0.68553668    -0.74200
Ni261      Ni  0.20298070  0.59539004  0.61953247     1.25400
Ni262      Ni  0.15431645  0.62194475  0.64229876     1.25400
C263        C  0.20386983  0.60465268  0.68945552     0.88100
C264        C  0.15430709  0.61464306  0.57207155     0.88000
C265        C  0.20709687  0.66538039  0.62479855     0.88000
C266        C  0.15173777  0.55127693  0.63939282     0.88200
O267        O  0.12276394  0.30294754  0.70441763    -0.74100
O268        O  0.13062451  0.39062317  0.66643677    -0.74100
O269        O  0.17051801  0.35097589  0.70468412    -0.74200
O270        O  0.08303008  0.34213032  0.66654908    -0.74200
O271        O  0.06068568  0.36452466  0.71275297    -0.74200
O272        O  0.14848723  0.37317118  0.75100813    -0.74100
O273        O  0.10844026  0.41310442  0.71255278    -0.74100
O274        O  0.10079739  0.32512342  0.75090048    -0.74200
Ni275      Ni  0.12753088  0.34600749  0.68386348     1.25400
Ni276      Ni  0.10378199  0.36989298  0.73341882     1.25400
C277        C  0.11056515  0.29953841  0.73393801     0.88100
C278        C  0.12108363  0.41643482  0.68314630     0.88000
C279        C  0.17403748  0.36281620  0.73442211     0.88000
C280        C  0.05735754  0.35088862  0.68377716     0.88200
O281        O  0.12856545  0.66869654  0.32050406    -0.74100
O282        O  0.13404266  0.63246733  0.40956052    -0.74100
O283        O  0.08734805  0.63200911  0.35977236    -0.74200
O284        O  0.17530927  0.66879187  0.36974133    -0.74200
O285        O  0.15320568  0.71644757  0.38925905    -0.74200
O286        O  0.06510866  0.67875105  0.38124491    -0.74100
O287        O  0.11263391  0.67995580  0.42993778    -0.74100
O288        O  0.10567335  0.71540236  0.34107067    -0.74200
Ni289      Ni  0.13205913  0.64876291  0.36424035     1.25400
Ni290      Ni  0.10834095  0.69926072  0.38619355     1.25400
C291        C  0.11630775  0.69815738  0.31604080     0.88100
C292        C  0.12470718  0.65047595  0.43460308     0.88000
C293        C  0.06169851  0.64943926  0.36836999     0.88000
C294        C  0.17876285  0.69894444  0.38038226     0.88200
O295        O  0.87703485  0.24677745  0.66970545    -0.74100
O296        O  0.87119817  0.28928815  0.58402060    -0.74100
O297        O  0.91826057  0.28598841  0.63269305    -0.74200
O298        O  0.83002100  0.25048824  0.62097581    -0.74200
O299        O  0.80857346  0.29608804  0.64523881    -0.74200
O300        O  0.89682877  0.33193468  0.65630517    -0.74100
O301        O  0.84922437  0.33498432  0.60774906    -0.74100
O302        O  0.85613517  0.29284507  0.69379306    -0.74200
Ni303      Ni  0.87494434  0.26654974  0.62599171     1.25400
Ni304      Ni  0.85195400  0.31561513  0.65163531     1.25400
C305        C  0.86745885  0.26275588  0.69592831     0.88100
C306        C  0.85862164  0.31881078  0.58156202     0.88000
C307        C  0.92223811  0.31478675  0.64655785     0.88000
C308        C  0.80460760  0.26740444  0.63114787     0.88200
O309        O  0.81379815  0.61682588  0.31136720    -0.74100
O310        O  0.90290337  0.62190461  0.34648800    -0.74100
O311        O  0.86463262  0.66127077  0.30721254    -0.74200
O312        O  0.85159393  0.57717842  0.35087357    -0.74200
O313        O  0.87241041  0.55058882  0.30611547    -0.74200
O314        O  0.88223121  0.63473797  0.26101137    -0.74100
O315        O  0.92232813  0.59664697  0.30056130    -0.74100
O316        O  0.83276299  0.58911509  0.26665581    -0.74200
Ni317      Ni  0.85760902  0.62016964  0.33064899     1.25400
Ni318      Ni  0.87821829  0.59173241  0.28202356     1.25400
C319        C  0.80845678  0.60222217  0.28317145     0.88100
C320        C  0.92756946  0.61113731  0.32882209     0.88000
C321        C  0.87497104  0.66180327  0.27683167     0.88000
C322        C  0.85919681  0.55002119  0.33540882     0.88200
O323        O  0.75582003  0.32658418  0.40469822    -0.74100
O324        O  0.79226986  0.41470949  0.39408276    -0.74100
O325        O  0.75422195  0.37350632  0.35577847    -0.74200
O326        O  0.79365056  0.36763499  0.44306415    -0.74200
O327        O  0.83994917  0.34553744  0.42085046    -0.74200
O328        O  0.80083459  0.35207248  0.33334981    -0.74100
O329        O  0.83871087  0.39282741  0.37199212    -0.74100
O330        O  0.80213257  0.30469324  0.38224962    -0.74200
Ni331      Ni  0.77239516  0.37144883  0.40023342     1.25400
Ni332      Ni  0.82208429  0.34802606  0.37633953     1.25400
C333        C  0.77288988  0.30102421  0.39508954     0.88100
C334        C  0.82132630  0.41843081  0.38084205     0.88000
C335        C  0.77104212  0.36379360  0.33013030     0.88000
C336        C  0.82299294  0.35490679  0.44651786     0.88200
C337        C  0.87410031  0.49085594  0.34819683    -0.11900
C338        C  0.85125541  0.51749183  0.35087175     0.05100
C339        C  0.82011238  0.51217829  0.36666186    -0.07200
C340        C  0.81169372  0.48012115  0.37800049    -0.08000
C341        C  0.83382151  0.45284738  0.37394765    -0.02500
C342        C  0.86597174  0.45884942  0.36011976     0.04300
N343        N  0.89068812  0.43287413  0.35801372     0.66800
H344        H  0.89842412  0.49491848  0.33671663     0.15700
H345        H  0.78690435  0.47636389  0.38851181     0.15400
N346        N  0.79557137  0.53836299  0.36864804     0.74500
O347        O  0.89816817  0.42038628  0.32985159    -0.38900
O348        O  0.90864551  0.42633022  0.38326616    -0.38900
O349        O  0.77652216  0.54395592  0.34397155    -0.39600
O350        O  0.78992623  0.55269750  0.39635512    -0.39700
C351        C  0.82047155  0.36566163  0.50801442    -0.11900
C352        C  0.83647234  0.34976919  0.48082867     0.05100
C353        C  0.86313613  0.32724382  0.48743509    -0.07200
C354        C  0.87137662  0.31927165  0.52057880    -0.08000
C355        C  0.85364420  0.33324729  0.54768853    -0.02500
C356        C  0.82889076  0.35782649  0.54117109     0.04300
N357        N  0.81050378  0.37349741  0.56774207     0.66800
H358        H  0.80039603  0.38356742  0.50361639     0.15700
H359        H  0.89087307  0.30073772  0.52501505     0.15400
N360        N  0.88061735  0.31037962  0.46097275     0.74500
O361        O  0.82153538  0.40005667  0.58101729    -0.38900
O362        O  0.78115258  0.36379469  0.57440162    -0.38900
O363        O  0.91012199  0.31910291  0.45366716    -0.39600
O364        O  0.86892686  0.28349074  0.44898442    -0.39700
C365        C  0.96749711  0.63548756  0.37055145    -0.11900
C366        C  0.96246533  0.61710173  0.34074819     0.05100
C367        C  0.99093781  0.60712948  0.32191621    -0.07200
C368        C  0.02305039  0.61653088  0.33245074    -0.08000
C369        C  0.02777235  0.63625451  0.36126219    -0.02500
C370        C  0.99965518  0.64516619  0.38080868     0.04300
N371        N  0.00335433  0.66385184  0.41123789     0.66800
H372        H  0.94624535  0.64322612  0.38577102     0.15700
H373        H  0.04440509  0.60960201  0.31695835     0.15400
N374        N  0.98779272  0.58882187  0.29120345     0.74500
O375        O  0.99547951  0.69455543  0.41199741    -0.38900
O376        O  0.00956301  0.64864154  0.43829499    -0.38900
O377        O  0.98864707  0.60427441  0.26359624    -0.39600
O378        O  0.98967238  0.55719336  0.29145716    -0.39700
C379        C  0.98402362  0.30777025  0.64138681    -0.11900
C380        C  0.95681788  0.32740658  0.65240074     0.05100
C381        C  0.96349026  0.35693300  0.67110028    -0.07200
C382        C  0.99647193  0.36453599  0.68051632    -0.08000
C383        C  0.02335295  0.34392980  0.67076381    -0.02500
C384        C  0.01694310  0.31572054  0.65026784     0.04300
N385        N  0.04321256  0.29323537  0.64054044     0.66800
H386        H  0.97978223  0.28513392  0.62682163     0.15700
H387        H  0.00106813  0.38671828  0.69567894     0.15400
N388        N  0.93721249  0.37933426  0.68103347     0.74500
O389        O  0.05196062  0.26997693  0.66015145    -0.38900
O390        O  0.05331268  0.29289741  0.61053205    -0.38900
O391        O  0.92961255  0.38220632  0.71165025    -0.39600
O392        O  0.92532108  0.39985149  0.66003513    -0.39700
C393        C  0.15479369  0.60119232  0.51099807    -0.11900
C394        C  0.14212745  0.62087924  0.53741620     0.05100
C395        C  0.12079498  0.64817955  0.52968844    -0.07200
C396        C  0.11446872  0.65647809  0.49613575    -0.08000
C397        C  0.12870674  0.63794384  0.46959130    -0.02500
C398        C  0.14814029  0.60923291  0.47743467     0.04300
N399        N  0.16256770  0.58868945  0.45176226     0.66800
H400        H  0.17083041  0.57982538  0.51635696     0.15700
H401        H  0.09901500  0.67830284  0.49094740     0.15400
N402        N  0.10708325  0.66913667  0.55545117     0.74500
O403        O  0.19203707  0.59439278  0.44178486    -0.38900
O404        O  0.14812409  0.56188089  0.44311773    -0.38900
O405        O  0.12178837  0.69600955  0.56343239    -0.39600
O406        O  0.07793445  0.66352744  0.56637881    -0.39700
C407        C  0.15363621  0.48949235  0.63105708    -0.11900
C408        C  0.13875235  0.51718007  0.64715678     0.05100
C409        C  0.11509580  0.51115665  0.67285831    -0.07200
C410        C  0.10885267  0.47816002  0.68347005    -0.08000
C411        C  0.12544403  0.45061182  0.66871491    -0.02500
C412        C  0.14725868  0.45661820  0.64140515     0.04300
N413        N  0.16484019  0.42987671  0.62507351     0.66800
H414        H  0.17151387  0.49333845  0.61092251     0.15700
H415        H  0.09152860  0.47422754  0.70405805     0.15400
N416        N  0.09864165  0.53819485  0.68983129     0.74500
O417        O  0.15297723  0.41712579  0.59861160    -0.38900
O418        O  0.19443166  0.42282511  0.63388657    -0.38900
O419        O  0.06904728  0.54606719  0.68175791    -0.39600
O420        O  0.11113734  0.54989559  0.71647200    -0.39700
C421        C  0.86680503  0.19758493  0.76564220    -0.11900
C422        C  0.87151291  0.21779941  0.79421154     0.05100
C423        C  0.87594628  0.25278064  0.78984984    -0.07200
C424        C  0.87477184  0.26669194  0.75767095    -0.08000
C425        C  0.86957644  0.24654964  0.72925822    -0.02500
C426        C  0.86600049  0.21153861  0.73340815     0.04300
N427        N  0.86018189  0.18994837  0.70532525     0.66800
H428        H  0.86356386  0.17067678  0.76825209     0.15700
H429        H  0.87787912  0.29361414  0.75493872     0.15400
N430        N  0.88080433  0.27479158  0.81779902     0.74500
O431        O  0.88423168  0.17348974  0.69282161    -0.38900
O432        O  0.83051676  0.18340026  0.69648822    -0.38900
O433        O  0.90947685  0.28690106  0.82343340    -0.39600
O434        O  0.85575757  0.28579286  0.83380746    -0.39700
C435        C  0.83911068  0.11072659  0.98398400    -0.11900
C436        C  0.86247246  0.13653195  0.97886357     0.05100
C437        C  0.87805816  0.15137687  0.00708730    -0.07200
C438        C  0.86793992  0.14234607  0.03941926    -0.08000
C439        C  0.84282754  0.11825486  0.04446618    -0.02500
C440        C  0.82936115  0.10137258  0.01632946     0.04300
N441        N  0.80542305  0.07500055  0.02007310     0.66800
H442        H  0.82719631  0.09853280  0.96274588     0.15700
H443        H  0.87915737  0.15515266  0.06068099     0.15400
N444        N  0.90382868  0.17600136  0.00343574     0.74500
O445        O  0.77498071  0.08031010  0.01315574    -0.38900
O446        O  0.81540537  0.04539667  0.02543549    -0.38900
O447        O  0.89887532  0.20569697  0.01342882    -0.39600
O448        O  0.93283495  0.16708450  0.99431952    -0.39700
C449        C  0.11484892  0.22599539  0.79422170    -0.11900
C450        C  0.10920540  0.19867945  0.77256963     0.05100
C451        C  0.10175375  0.20520778  0.73849214    -0.07200
C452        C  0.10168051  0.23828182  0.72671445    -0.08000
C453        C  0.10802200  0.26543706  0.74827896    -0.02500
C454        C  0.11404353  0.25908505  0.78257051     0.04300
N455        N  0.12172628  0.28563740  0.80548571     0.66800
H456        H  0.12030541  0.22175217  0.82057873     0.15700
H457        H  0.09708651  0.24269875  0.70022012     0.15400
N458        N  0.09523851  0.17865354  0.71523127     0.74500
O459        O  0.09825064  0.30316496  0.81763504    -0.38900
O460        O  0.15032721  0.28656582  0.81901244    -0.38900
O461        O  0.06540482  0.17206434  0.70700051    -0.39600
O462        O  0.11916673  0.16558336  0.69905661    -0.39700
C463        C  0.99958797  0.10204030  0.83633308    -0.11900
C464        C  0.02741879  0.11790963  0.85093512     0.05100
C465        C  0.02191921  0.14214072  0.87635616    -0.07200
C466        C  0.98919138  0.15140676  0.88499835    -0.08000
C467        C  0.96136052  0.13698865  0.86896025    -0.02500
C468        C  0.96682658  0.11130067  0.84498561     0.04300
N469        N  0.93959965  0.09581054  0.82754768     0.66800
H470        H  0.00318405  0.08317281  0.81697700     0.15700
H471        H  0.98564618  0.17078836  0.90385011     0.15400
N472        N  0.04915692  0.15913753  0.89228014     0.74500
O473        O  0.92650052  0.11041764  0.80268585    -0.38900
O474        O  0.93228500  0.06561190  0.83356492    -0.38900
O475        O  0.05857125  0.18731782  0.88141375    -0.39600
O476        O  0.06039361  0.14844624  0.91988250    -0.39700
C477        C  0.16663778  0.97266332  0.87925385    -0.11900
C478        C  0.15462223  0.94553124  0.86031878     0.05100
C479        C  0.13127141  0.95167097  0.83432302    -0.07200
C480        C  0.12090862  0.98454372  0.82760743    -0.08000
C481        C  0.13411244  0.01191869  0.84550046    -0.02500
C482        C  0.15682768  0.00559019  0.87206276     0.04300
N483        N  0.17171496  0.03227893  0.89083468     0.66800
H484        H  0.18446803  0.96842949  0.89937530     0.15700
H485        H  0.10368913  0.98870677  0.80695638     0.15400
N486        N  0.11993511  0.92531420  0.81266564     0.74500
O487        O  0.15909558  0.04103646  0.91855296    -0.38900
O488        O  0.20014529  0.04328948  0.88244286    -0.38900
O489        O  0.08899770  0.91912170  0.81034149    -0.39600
O490        O  0.14007284  0.91207909  0.79203621    -0.39700
C491        C  0.89599511  0.71993352  0.27616426    -0.11900
C492        C  0.87822860  0.69432316  0.26006865     0.05100
C493        C  0.86224824  0.70076569  0.22927740    -0.07200
C494        C  0.86314894  0.73310504  0.21571235    -0.08000
C495        C  0.87996407  0.75933012  0.23234482    -0.02500
C496        C  0.89749593  0.75211682  0.26240270     0.04300
N497        N  0.91711332  0.77699499  0.27919308     0.66800
H498        H  0.90883834  0.71487710  0.29967744     0.15700
H499        H  0.84946561  0.73791264  0.19265315     0.15400
N500        N  0.84282360  0.67542826  0.21294932     0.74500
O501        O  0.90636449  0.79023868  0.30592061    -0.38900
O502        O  0.94710928  0.78176101  0.27033769    -0.38900
O503        O  0.81235954  0.67168491  0.22063224    -0.39600
O504        O  0.85476997  0.65990331  0.18801739    -0.39700
C505        C  0.87458316  0.97433921  0.18106569    -0.11900
C506        C  0.85976557  0.94796986  0.16287272     0.05100
C507        C  0.83858358  0.95587269  0.13554236    -0.07200
C508        C  0.83057193  0.98935332  0.12884673    -0.08000
C509        C  0.84352637  0.01552904  0.14855712    -0.02500
C510        C  0.86668053  0.00786234  0.17423311     0.04300
N511        N  0.88044032  0.03347518  0.19528014     0.66800
H512        H  0.89135848  0.96895896  0.20182302     0.15700
H513        H  0.81331267  0.99481322  0.10849856     0.15400
N514        N  0.82367359  0.93030694  0.11527132     0.74500
O515        O  0.86321367  0.04526185  0.21914904    -0.38900
O516        O  0.91123592  0.04042795  0.19334694    -0.38900
O517        O  0.79334057  0.92252596  0.11970461    -0.39600
O518        O  0.83901955  0.91953087  0.08971160    -0.39700
C519        C  0.12311735  0.71047717  0.22118915    -0.11900
C520        C  0.11464324  0.74452089  0.21805906     0.05100
C521        C  0.10541956  0.76278463  0.24693608    -0.07200
C522        C  0.10565611  0.74709102  0.27835858    -0.08000
C523        C  0.11489833  0.71310040  0.28181608    -0.02500
C524        C  0.12342392  0.69469990  0.25257745     0.04300
N525        N  0.13275239  0.66007329  0.25415687     0.66800
H526        H  0.13027972  0.69613237  0.19917075     0.15700
H527        H  0.09866579  0.76180133  0.30017030     0.15400
N528        N  0.09464049  0.79697035  0.24460794     0.74500
O529        O  0.11038869  0.63774617  0.25303413    -0.38900
O530        O  0.16321921  0.65178892  0.25158219    -0.38900
O531        O  0.06468651  0.80354791  0.23668912    -0.39600
O532        O  0.11351592  0.82019882  0.25487506    -0.39700
C533        C  0.11731647  0.81276143  0.00762921    -0.11900
C534        C  0.13460961  0.82700851  0.03486289     0.05100
C535        C  0.15926841  0.85155586  0.02834951    -0.07200
C536        C  0.16785692  0.85928154  0.99520210    -0.08000
C537        C  0.15217716  0.84329411  0.96793246    -0.02500
C538        C  0.12569556  0.82068697  0.97447468     0.04300
N539        N  0.10834986  0.80392743  0.94792378     0.66800
H540        H  0.09787484  0.79427602  0.01199304     0.15700
H541        H  0.18782521  0.87720343  0.99088932     0.15400
N542        N  0.17736752  0.86739670  0.05494802     0.74500
O543        O  0.11946483  0.77638328  0.93675955    -0.38900
O544        O  0.07940830  0.81370843  0.93955181    -0.38900
O545        O  0.20591305  0.85641078  0.06319900    -0.39600
O546        O  0.16730576  0.89521233  0.06641877    -0.39700
C547        C  0.02434891  0.85087884  0.16221258    -0.11900
C548        C  0.02920722  0.82459943  0.13907317     0.05100
C549        C  0.00074181  0.80934723  0.12441789    -0.07200
C550        C  0.96858081  0.81904326  0.13454516    -0.08000
C551        C  0.96378272  0.84392774  0.15907838    -0.02500
C552        C  0.99207855  0.86066937  0.17220740     0.04300
N553        N  0.98853097  0.88756812  0.19575471     0.66800
H554        H  0.04573098  0.86329133  0.17353872     0.15700
H555        H  0.94721671  0.80602052  0.12387811     0.15400
N556        N  0.00391386  0.78348835  0.09967381     0.74500
O557        O  0.99591573  0.88294795  0.22619802    -0.38900
O558        O  0.98290976  0.91694783  0.18532791    -0.38900
O559        O  0.99639928  0.75362777  0.10699679    -0.39600
O560        O  0.00952872  0.79120170  0.06949711    -0.39700
C561        C  0.25107189  0.76067784  0.37591627    -0.11900
C562        C  0.27885875  0.73990705  0.38275873     0.05100
C563        C  0.27306480  0.70561500  0.39003850    -0.07200
C564        C  0.24033162  0.69284995  0.38913183    -0.08000
C565        C  0.21279229  0.71364926  0.38193684    -0.02500
C566        C  0.21839315  0.74796423  0.37547324     0.04300
N567        N  0.19140754  0.76983587  0.36637136     0.66800
H568        H  0.25465307  0.78704665  0.37021909     0.15700
H569        H  0.23640358  0.66643657  0.39443900     0.15400
N570        N  0.29996159  0.68325739  0.39817267     0.74500
O571        O  0.18109097  0.79165774  0.38695538    -0.38900
O572        O  0.18117901  0.77049209  0.33640090    -0.38900
O573        O  0.31004483  0.68139629  0.42813496    -0.39600
O574        O  0.30858209  0.66083551  0.37745866    -0.39700
C575        C  0.71658492  0.85042983  0.23348296    -0.11900
C576        C  0.71258439  0.86353925  0.26588440     0.05100
C577        C  0.74110001  0.87430277  0.28373565    -0.07200
C578        C  0.77295855  0.87166319  0.26904886    -0.08000
C579        C  0.77727099  0.85808836  0.23665491    -0.02500
C580        C  0.74845819  0.84690666  0.21903153     0.04300
N581        N  0.75108715  0.83040734  0.18722493     0.66800
H582        H  0.69485009  0.84131617  0.21981668     0.15700
H583        H  0.79444805  0.88063853  0.28314667     0.15400
N584        N  0.73791733  0.88905657  0.31633803     0.74500
O585        O  0.76052300  0.80014598  0.18596972    -0.38900
O586        O  0.73865617  0.84392967  0.16143365    -0.38900
O587        O  0.75041844  0.87452894  0.34154173    -0.39600
O588        O  0.72573239  0.91818311  0.31944286    -0.39700
C589        C  0.52474504  0.81835206  0.36814925    -0.11900
C590        C  0.52811030  0.84496487  0.34529111     0.05100
C591        C  0.49876743  0.86012058  0.33237947    -0.07200
C592        C  0.46716940  0.84769196  0.34139128    -0.08000
C593        C  0.46383098  0.81999175  0.36301741    -0.02500
C594        C  0.49321677  0.80561899  0.37681045     0.04300
N595        N  0.49174937  0.77739338  0.39883339     0.66800
H596        H  0.54685594  0.80605903  0.37822077     0.15700
H597        H  0.44510667  0.85939781  0.33056514     0.15400
N598        N  0.50052422  0.88796165  0.30986941     0.74500
O599        O  0.49432800  0.74811014  0.38691890    -0.38900
O600        O  0.49424254  0.78183540  0.43009548    -0.38900
O601        O  0.49221922  0.88422791  0.27952694    -0.39600
O602        O  0.50546110  0.91709987  0.32130751    -0.39700
C603        C  0.28300339  0.86421207  0.74666972    -0.11900
C604        C  0.26309495  0.85628519  0.71880063     0.05100
C605        C  0.22868674  0.84976024  0.72341970    -0.07200
C606        C  0.21483177  0.85108714  0.75562317    -0.08000
C607        C  0.23472434  0.85838108  0.78383963    -0.02500
C608        C  0.26916909  0.86558237  0.77897076     0.04300
N609        N  0.29060710  0.87406885  0.80642621     0.66800
H610        H  0.30941376  0.86963245  0.74333390     0.15700
H611        H  0.18844196  0.84540381  0.75854447     0.15400
N612        N  0.20796022  0.83955943  0.69593077     0.74500
O613        O  0.30774647  0.85146830  0.82053785    -0.38900
O614        O  0.29635681  0.90452166  0.81300426    -0.38900
O615        O  0.21366847  0.81204140  0.68120924    -0.39600
O616        O  0.18231430  0.85651699  0.68823361    -0.39700
C617        C  0.27500847  0.73169714  0.62884452    -0.11900
C618        C  0.25747410  0.76069454  0.61892969     0.05100
C619        C  0.22305751  0.75769024  0.61026957    -0.07200
C620        C  0.20698310  0.72658549  0.61289912    -0.08000
C621        C  0.22460879  0.69790011  0.62296185    -0.02500
C622        C  0.25899099  0.70056622  0.63085899     0.04300
N623        N  0.27751563  0.67224984  0.64289169     0.66800
H624        H  0.30123979  0.73319241  0.63589209     0.15700
H625        H  0.18064004  0.72471621  0.60631059     0.15400
N626        N  0.20398726  0.78574688  0.59847631     0.74500
O627        O  0.29877278  0.65806585  0.62412547    -0.38900
O628        O  0.27582359  0.66425184  0.67347387    -0.38900
O629        O  0.20610496  0.79429458  0.56807094    -0.39600
O630        O  0.18080700  0.79777429  0.61644476    -0.39700
C631        C  0.37994969  0.81835105  0.49237248    -0.11900
C632        C  0.35580201  0.81900634  0.46680468     0.05100
C633        C  0.32324880  0.83074188  0.47396348    -0.07200
C634        C  0.31509107  0.84090954  0.50647782    -0.08000
C635        C  0.33876927  0.83939013  0.53257125    -0.02500
C636        C  0.37189685  0.82895886  0.52501543     0.04300
N637        N  0.39772374  0.82960632  0.54989637     0.66800
H638        H  0.40521957  0.80978952  0.48690185     0.15700
H639        H  0.28939975  0.84833819  0.51156623     0.15400
N640        N  0.29730254  0.82941736  0.44922257     0.74500
O641        O  0.41074279  0.80249356  0.55988615    -0.38900
O642        O  0.41096421  0.85721956  0.55794704    -0.38900
O643        O  0.28186652  0.80224805  0.44420268    -0.39600
O644        O  0.28638994  0.85622914  0.43636232    -0.39700
C645        C  0.24897109  0.07966554  0.72360066    -0.11900
C646        C  0.27554249  0.09574868  0.73996292     0.05100
C647        C  0.26966075  0.11261572  0.77043541    -0.07200
C648        C  0.23740506  0.11337684  0.78402582    -0.08000
C649        C  0.21048262  0.09727962  0.76790311    -0.02500
C650        C  0.21667885  0.07980746  0.73750736     0.04300
N651        N  0.19083571  0.06138360  0.72087597     0.66800
H652        H  0.25343449  0.06651513  0.70014439     0.15700
H653        H  0.23343273  0.12726148  0.80712680     0.15400
N654        N  0.29574491  0.13108191  0.78665477     0.74500
O655        O  0.17763095  0.07301483  0.69455428    -0.38900
O656        O  0.18516204  0.03139831  0.72927635    -0.38900
O657        O  0.29774710  0.16237059  0.78221388    -0.39600
O658        O  0.31266777  0.11744575  0.80968260    -0.39700
C659        C  0.32772996  0.96967908  0.62410484    -0.11900
C660        C  0.34286827  0.94241314  0.64056839     0.05100
C661        C  0.36740324  0.94888131  0.66531055    -0.07200
C662        C  0.37453851  0.98207462  0.67450950    -0.08000
C663        C  0.35756835  0.00925270  0.65963599    -0.02500
C664        C  0.33460269  0.00274190  0.63344464     0.04300
N665        N  0.31598244  0.02912711  0.61779367     0.66800
H666        H  0.30906760  0.96537584  0.60476307     0.15700
H667        H  0.39258072  0.98647261  0.69440527     0.15400
N668        N  0.38359701  0.92220013  0.68301368     0.74500
O669        O  0.32456094  0.03949596  0.58916179    -0.38900
O670        O  0.28824200  0.03827288  0.63008629    -0.38900
O671        O  0.41348034  0.91445914  0.67591477    -0.39600
O672        O  0.37020261  0.91035309  0.70911003    -0.39700
C673        C  0.71139257  0.22821833  0.39931662    -0.11900
C674        C  0.73311809  0.20050249  0.39715093     0.05100
C675        C  0.76806512  0.20605060  0.39756105    -0.07200
C676        C  0.78048033  0.23891883  0.39777943    -0.08000
C677        C  0.75869867  0.26674601  0.39822387    -0.02500
C678        C  0.72377776  0.26104688  0.40027400     0.04300
N679        N  0.70038897  0.28823533  0.40220671     0.66800
H680        H  0.68448476  0.22443489  0.39991876     0.15700
H681        H  0.80738618  0.24263389  0.39693831     0.15400
N682        N  0.79130114  0.17870649  0.39603721     0.74500
O683        O  0.68862249  0.30079734  0.37563389    -0.38900
O684        O  0.68788737  0.29628798  0.43019561    -0.38900
O685        O  0.79702168  0.16423772  0.36842225    -0.39600
O686        O  0.80789018  0.17059050  0.42176147    -0.39700
C687        C  0.71740430  0.10313654  0.26718422    -0.11900
C688        C  0.73816112  0.09939854  0.29545849     0.05100
C689        C  0.77305423  0.09491576  0.29052905    -0.07200
C690        C  0.78638204  0.09647349  0.25795967    -0.08000
C691        C  0.76548681  0.10098921  0.22994059    -0.02500
C692        C  0.73058424  0.10373430  0.23480034     0.04300
N693        N  0.70821867  0.10890550  0.20724469     0.66800
H694        H  0.69051121  0.10617581  0.27010219     0.15700
H695        H  0.81322993  0.09354980  0.25451408     0.15400
N696        N  0.79530436  0.08876316  0.31801657     0.74500
O697        O  0.69162811  0.08453277  0.19572341    -0.38900
O698        O  0.70116305  0.13839512  0.19806637    -0.38900
O699        O  0.79597071  0.06002442  0.33129930    -0.39600
O700        O  0.81890535  0.10899109  0.32385846    -0.39700
C701        C  0.63186295  0.01295096  0.34252712    -0.11900
C702        C  0.65565750  0.01613744  0.36838335     0.05100
C703        C  0.66829167  0.98668311  0.38357893    -0.07200
C704        C  0.65780782  0.95516083  0.37217789    -0.08000
C705        C  0.63495091  0.95193691  0.34548653    -0.02500
C706        C  0.62149324  0.98140280  0.33099720     0.04300
N707        N  0.59749527  0.97987906  0.30438597     0.66800
H708        H  0.62175667  0.03514821  0.33039582     0.15700
H709        H  0.66860081  0.93299457  0.38376669     0.15400
N710        N  0.69213947  0.98817979  0.41031415     0.74500
O711        O  0.56704530  0.97447875  0.31103030    -0.38900
O712        O  0.60575724  0.98878927  0.27516270    -0.38900
O713        O  0.68203857  0.98869321  0.44031929    -0.39600
O714        O  0.72281659  0.98318403  0.40423289    -0.39700
C715        C  0.73160944  0.20835451  0.61322768    -0.11900
C716        C  0.70468903  0.22667696  0.62651852     0.05100
C717        C  0.71027356  0.25911908  0.63935494    -0.07200
C718        C  0.74278733  0.27222239  0.63980110    -0.08000
C719        C  0.77018897  0.25359960  0.62736222    -0.02500
C720        C  0.76405290  0.22161949  0.61300781     0.04300
N721        N  0.79029754  0.20223159  0.59800988     0.66800
H722        H  0.72737779  0.18354144  0.60275082     0.15700
H723        H  0.74660809  0.29683032  0.65085000     0.15400
N724        N  0.68359036  0.27804799  0.65419280     0.74500
O725        O  0.80248596  0.17746343  0.61354807    -0.38900
O726        O  0.79731349  0.20642179  0.56742148    -0.38900
O727        O  0.67586623  0.27324629  0.68451478    -0.39600
O728        O  0.67070970  0.30231515  0.63842641    -0.39700
C729        C  0.52007488  0.11685595  0.66767626    -0.11900
C730        C  0.52320982  0.14162499  0.64286726     0.05100
C731        C  0.49413051  0.15291778  0.62608065    -0.07200
C732        C  0.46267732  0.14067627  0.63556146    -0.08000
C733        C  0.45937811  0.11726424  0.66173516    -0.02500
C734        C  0.48869993  0.10461335  0.67717784     0.04300
N735        N  0.48715951  0.07987763  0.70307111     0.66800
H736        H  0.54209743  0.10759588  0.68075098     0.15700
H737        H  0.44061300  0.15062619  0.62308623     0.15400
N738        N  0.49599031  0.17698849  0.59959534     0.74500
O739        O  0.48301360  0.04940323  0.69544731    -0.38900
O740        O  0.49456835  0.08775203  0.73285658    -0.38900
O741        O  0.49963901  0.16708691  0.56971036    -0.39600
O742        O  0.48835812  0.20724253  0.60529201    -0.39700
C743        C  0.64464192  0.11636786  0.53511511    -0.11900
C744        C  0.62780565  0.14736047  0.53847686     0.05100
C745        C  0.62004530  0.16569879  0.50911070    -0.07200
C746        C  0.63059260  0.15373131  0.47778792    -0.08000
C747        C  0.64907229  0.12379836  0.47485479    -0.02500
C748        C  0.65530976  0.10458858  0.50378702     0.04300
N749        N  0.67231422  0.07301131  0.50176437     0.66800
H750        H  0.65043364  0.10135714  0.55704944     0.15700
H751        H  0.62561682  0.16889608  0.45573841     0.15400
N752        N  0.60275942  0.19715008  0.51057451     0.74500
O753        O  0.70231018  0.07059365  0.51158992    -0.38900
O754        O  0.65588419  0.04675605  0.49527562    -0.38900
O755        O  0.61910569  0.22413953  0.50833173    -0.39600
O756        O  0.57120980  0.19783980  0.50815622    -0.39700
C757        C  0.36460104  0.69139680  0.24747293    -0.11900
C758        C  0.37795151  0.70860407  0.21976639     0.05100
C759        C  0.39294126  0.74038653  0.22510704    -0.07200
C760        C  0.39264174  0.75478265  0.25723384    -0.08000
C761        C  0.37858466  0.73765891  0.28445475    -0.02500
C762        C  0.36487233  0.70556128  0.27950454     0.04300
N763        N  0.34868660  0.68819229  0.30629014     0.66800
H764        H  0.35291378  0.66703739  0.24428630     0.15700
H765        H  0.40365535  0.77939624  0.26099436     0.15400
N766        N  0.40868796  0.75832806  0.19842262     0.74500
O767        O  0.31805788  0.69371378  0.31213240    -0.38900
O768        O  0.36315879  0.66360635  0.32006920    -0.38900
O769        O  0.43946097  0.75371546  0.19253541    -0.39600
O770        O  0.39345747  0.78236942  0.18449979    -0.39700
C771        C  0.24110114  0.75949041  0.13964623    -0.11900
C772        C  0.21522333  0.74707984  0.11906808     0.05100
C773        C  0.22185658  0.71890573  0.09830952    -0.07200
C774        C  0.25301918  0.70269164  0.09996419    -0.08000
C775        C  0.27828293  0.71475739  0.12107559    -0.02500
C776        C  0.27247218  0.74358903  0.14067350     0.04300
N777        N  0.29763669  0.75581577  0.16312133     0.66800
H778        H  0.23670127  0.78089135  0.15584546     0.15700
H779        H  0.25769390  0.68090660  0.08433215     0.15400
N780        N  0.19764115  0.70699301  0.07469173     0.74500
O781        O  0.31621057  0.77987225  0.15444649    -0.38900
O782        O  0.30253978  0.74138624  0.19086833    -0.38900
O783        O  0.19388606  0.72203412  0.04709052    -0.39600
O784        O  0.18339147  0.67915019  0.07938416    -0.39700
C785        C  0.76407384  0.26032529  0.12818447    -0.11900
C786        C  0.72926003  0.26242812  0.13370711     0.05100
C787        C  0.71092345  0.23234207  0.13768495    -0.07200
C788        C  0.72745244  0.20136438  0.13606932    -0.08000
C789        C  0.76223362  0.19940149  0.13104896    -0.02500
C790        C  0.78059378  0.22927400  0.12674174     0.04300
N791        N  0.81576598  0.22847177  0.11970212     0.66800
H792        H  0.77873850  0.28296892  0.12481318     0.15700
H793        H  0.71296028  0.17862650  0.13963055     0.15400
N794        N  0.67556225  0.23262003  0.14353924     0.74500
O795        O  0.82601672  0.21773493  0.09168384    -0.38900
O796        O  0.83616258  0.24215822  0.13967833    -0.38900
O797        O  0.65566994  0.22755359  0.11943359    -0.39600
O798        O  0.66462682  0.23199135  0.17325362    -0.39700
C799        C  0.75925418  0.37003934  0.23576123    -0.11900
C800        C  0.72469209  0.36388073  0.23239617     0.05100
C801        C  0.70527647  0.35951296  0.26181194    -0.07200
C802        C  0.72080900  0.36009451  0.29335173    -0.08000
C803        C  0.75544093  0.36536809  0.29648644    -0.02500
C804        C  0.77461889  0.37101531  0.26732874     0.04300
N805        N  0.80951114  0.37889299  0.26942650     0.66800
H806        H  0.77469944  0.37393595  0.21370104     0.15700
H807        H  0.70563781  0.35603342  0.31558803     0.15400
N808        N  0.66974906  0.35493611  0.26026429     0.74500
O809        O  0.83112625  0.35747009  0.26048287    -0.38900
O810        O  0.81846810  0.40861930  0.27569749    -0.38900
O811        O  0.65701946  0.32757385  0.26973846    -0.39600
O812        O  0.65091669  0.37969143  0.25408322    -0.39700
C813        C  0.73320213  0.58997135  0.22516611    -0.11900
C814        C  0.70735856  0.60364041  0.24472608     0.05100
C815        C  0.71468365  0.61636830  0.27683627    -0.07200
C816        C  0.74749673  0.61474121  0.28911816    -0.08000
C817        C  0.77371231  0.60118631  0.26964272    -0.02500
C818        C  0.76614271  0.58848935  0.23727154     0.04300
N819        N  0.79146018  0.57422695  0.21619679     0.66800
H820        H  0.72771016  0.58004037  0.20038282     0.15700
H821        H  0.75255481  0.62521255  0.31374859     0.15400
N822        N  0.68963260  0.63352459  0.29604146     0.74500
O823        O  0.79757434  0.54315979  0.21771016    -0.38900
O824        O  0.80354078  0.59133112  0.19250067    -0.38900
O825        O  0.68208996  0.62321351  0.32498881    -0.39600
O826        O  0.67906964  0.66177591  0.28630364    -0.39700
C827        C  0.60644247  0.72668087  0.22252023    -0.11900
C828        C  0.60420799  0.69944337  0.24482807     0.05100
C829        C  0.60303200  0.70614337  0.27974938    -0.07200
C830        C  0.60670072  0.73915016  0.29138871    -0.08000
C831        C  0.61013193  0.76613486  0.26906595    -0.02500
C832        C  0.60917308  0.75973751  0.23423120     0.04300
N833        N  0.61252546  0.78628374  0.21036017     0.66800
H834        H  0.60699615  0.72230046  0.19567125     0.15700
H835        H  0.60625826  0.74374672  0.31821120     0.15400
N836        N  0.59826419  0.67996858  0.30385097     0.74500
O837        O  0.64041550  0.80068385  0.20657230    -0.38900
O838        O  0.58833137  0.79363250  0.19129210    -0.38900
O839        O  0.61951252  0.67583428  0.32696827    -0.39600
O840        O  0.56981517  0.66640568  0.30647824    -0.39700
C841        C  0.51584961  0.62233417  0.13798606    -0.11900
C842        C  0.51996139  0.60879446  0.17030862     0.05100
C843        C  0.49103316  0.59991624  0.18881274    -0.07200
C844        C  0.45917677  0.60714873  0.17589291    -0.08000
C845        C  0.45541423  0.62315105  0.14477691    -0.02500
C846        C  0.48406266  0.62958394  0.12521839     0.04300
N847        N  0.48132693  0.64367541  0.09239002     0.66800
H848        H  0.53749081  0.62851217  0.12272652     0.15700
H849        H  0.43732536  0.60193202  0.19124367     0.15400
N850        N  0.49340250  0.58494835  0.22129410     0.74500
O851        O  0.48741148  0.67443853  0.08805049    -0.38900
O852        O  0.48005183  0.62432667  0.06732051    -0.38900
O853        O  0.48723300  0.60231464  0.24710692    -0.39600
O854        O  0.49636728  0.55350374  0.22385154    -0.39700
C855        C  0.62281797  0.45079372  0.17632573    -0.11900
C856        C  0.64695127  0.44650788  0.15096591     0.05100
C857        C  0.66016358  0.47524444  0.13507966    -0.07200
C858        C  0.65052322  0.50725966  0.14589512    -0.08000
C859        C  0.62771211  0.51158983  0.17242906    -0.02500
C860        C  0.61307884  0.48286404  0.18708719     0.04300
N861        N  0.58842627  0.48571752  0.21299046     0.66800
H862        H  0.61216770  0.42910605  0.18878307     0.15700
H863        H  0.66184908  0.52889471  0.13395868     0.15400
N864        N  0.68366366  0.47245004  0.10812847     0.74500
O865        O  0.55828118  0.49172216  0.20537033    -0.38900
O866        O  0.59572411  0.47739433  0.24265553    -0.38900
O867        O  0.67316369  0.46853613  0.07850724    -0.39600
O868        O  0.71415593  0.47923971  0.11313621    -0.39700
C869        C  0.24571872  0.36286754  0.79805021    -0.11900
C870        C  0.27333636  0.35628313  0.77722545     0.05100
C871        C  0.26828041  0.35364416  0.74229662    -0.07200
C872        C  0.23600886  0.35711822  0.72896737    -0.08000
C873        C  0.20810954  0.36327763  0.74971671    -0.02500
C874        C  0.21339931  0.36685001  0.78471899     0.04300
N875        N  0.18640761  0.37424301  0.80720904     0.66800
H876        H  0.24931148  0.36553499  0.82492378     0.15700
H877        H  0.23276780  0.35414817  0.70209119     0.15400
N878        N  0.29535028  0.34553359  0.72016759     0.74500
O879        O  0.17832071  0.35311196  0.82930015    -0.38900
O880        O  0.17579790  0.40403453  0.80965112    -0.38900
O881        O  0.30473657  0.31540223  0.71699454    -0.39600
O882        O  0.30685479  0.36762785  0.70069459    -0.39700
C883        C  0.37295370  0.25398508  0.74048189    -0.11900
C884        C  0.37120676  0.25554763  0.77569331     0.05100
C885        C  0.36982067  0.22531659  0.79407358    -0.07200
C886        C  0.37071681  0.19456589  0.77717906    -0.08000
C887        C  0.37195066  0.19304782  0.74199764    -0.02500
C888        C  0.37304862  0.22320624  0.72357106     0.04300
N889        N  0.37490784  0.22307491  0.68775755     0.66800
H890        H  0.37377571  0.27687283  0.72577341     0.15700
H891        H  0.36958084  0.17163970  0.79181501     0.15400
N892        N  0.36764929  0.22523939  0.82985758     0.74500
O893        O  0.34895718  0.22921482  0.67067723    -0.38900
O894        O  0.40316518  0.22220778  0.67352083    -0.38900
O895        O  0.33940425  0.22193241  0.84373581    -0.39600
O896        O  0.39395689  0.22141492  0.84702870    -0.39700
C897        C  0.27726384  0.72061012  0.89023090    -0.11900
C898        C  0.25526122  0.69348980  0.88592426     0.05100
C899        C  0.22065727  0.69990543  0.88216630    -0.07200
C900        C  0.20882100  0.73290383  0.88236627    -0.08000
C901        C  0.23079554  0.76019869  0.88581812    -0.02500
C902        C  0.26539473  0.75375439  0.89034983     0.04300
N903        N  0.28899391  0.78045767  0.89383308     0.66800
H904        H  0.30393977  0.71609569  0.89328841     0.15700
H905        H  0.18216058  0.73711173  0.87881403     0.15400
N906        N  0.19744885  0.67339622  0.87564071     0.74500
O907        O  0.29776691  0.79002403  0.92273365    -0.38900
O908        O  0.30489626  0.79064382  0.86846372    -0.38900
O909        O  0.17634899  0.66525873  0.89775174    -0.39600
O910        O  0.19445839  0.66207417  0.84619550    -0.39700
C911        C  0.25406275  0.59695230  0.72576270    -0.11900
C912        C  0.21941371  0.60324130  0.72324528     0.05100
C913        C  0.20060610  0.60749955  0.75306472    -0.07200
C914        C  0.21631100  0.60384852  0.78420707    -0.08000
C915        C  0.25087498  0.59769253  0.78663805    -0.02500
C916        C  0.26991983  0.59450499  0.75698570     0.04300
N917        N  0.30516654  0.58787861  0.75808968     0.66800
H918        H  0.26914514  0.59390665  0.70328427     0.15700
H919        H  0.20140337  0.60706165  0.80677823     0.15400
N920        N  0.16576467  0.61612248  0.75242480     0.74500
O921        O  0.31560409  0.55888596  0.76551343    -0.38900
O922        O  0.32556201  0.60957547  0.74747187    -0.38900
O923        O  0.14456533  0.59591359  0.76429698    -0.39600
O924        O  0.15728613  0.64628229  0.74753544    -0.39700
C925        C  0.35797710  0.62562763  0.97699355    -0.11900
C926        C  0.32809337  0.60750138  0.97267287     0.05100
C927        C  0.31049484  0.59662135  0.00149455    -0.07200
C928        C  0.32174231  0.60593275  0.03342515    -0.08000
C929        C  0.35040622  0.62590080  0.03747747    -0.02500
C930        C  0.36928201  0.63470511  0.00892616     0.04300
N931        N  0.40015253  0.65259491  0.01193689     0.66800
H932        H  0.37244028  0.63363064  0.95539669     0.15700
H933        H  0.30701647  0.59865258  0.05511505     0.15400
N934        N  0.28070843  0.57689984  0.99891629     0.74500
O935        O  0.42611304  0.63732708  0.02173286    -0.38900
O936        O  0.40273764  0.68171278  0.99980365    -0.38900
O937        O  0.28283400  0.54528129  0.99894213    -0.39600
O938        O  0.25238523  0.59076552  0.00214163    -0.39700
C939        C  0.35732502  0.49961316  0.85446504    -0.11900
C940        C  0.32527740  0.50462025  0.86845298     0.05100
C941        C  0.30570102  0.47617161  0.87659393    -0.07200
C942        C  0.31810452  0.44395646  0.87013977    -0.08000
C943        C  0.34940910  0.43920956  0.85485014    -0.02500
C944        C  0.36931221  0.46735125  0.84734821     0.04300
N945        N  0.40166757  0.46358135  0.83235086     0.66800
H946        H  0.37302339  0.52087665  0.84816532     0.15700
H947        H  0.30220752  0.42252757  0.87539671     0.15400
N948        N  0.27248215  0.47936608  0.88970651     0.74500
O949        O  0.40511748  0.46792767  0.80118002    -0.38900
O950        O  0.42731789  0.46160881  0.85079946    -0.38900
O951        O  0.24767967  0.47757545  0.87010238    -0.39600
O952        O  0.26779862  0.47862458  0.92101219    -0.39700
C953        C  0.71741990  0.21184374  0.90347044    -0.11900
C954        C  0.71320878  0.24568875  0.89420659     0.05100
C955        C  0.74217185  0.26516993  0.88776929    -0.07200
C956        C  0.77404167  0.25050882  0.88991843    -0.08000
C957        C  0.77796773  0.21652212  0.89805708    -0.02500
C958        C  0.74936332  0.19725421  0.90565258     0.04300
N959        N  0.75245114  0.16313921  0.91650504     0.66800
H960        H  0.69577005  0.19643931  0.90915395     0.15700
H961        H  0.79584514  0.26556507  0.88380621     0.15400
N962        N  0.73982951  0.29967083  0.87827733     0.74500
O963        O  0.76696974  0.15655010  0.94387915    -0.38900
O964        O  0.73765217  0.14003726  0.90068426    -0.38900
O965        O  0.74448770  0.32230525  0.89997500    -0.39600
O966        O  0.73878205  0.30737655  0.84758750    -0.39700
C967        C  0.60160548  0.26635104  0.76657929    -0.11900
C968        C  0.61234057  0.24541259  0.79276134     0.05100
C969        C  0.61960545  0.21146547  0.78580978    -0.07200
C970        C  0.61673416  0.19931632  0.75298090    -0.08000
C971        C  0.60669470  0.22031584  0.72640824    -0.02500
C972        C  0.59810554  0.25407123  0.73374920     0.04300
N973        N  0.58551199  0.27616153  0.70843255     0.66800
H974        H  0.59515177  0.29234473  0.77179143     0.15700
H975        H  0.62345078  0.17332020  0.74821841     0.15400
N976        N  0.63187427  0.18948950  0.81140748     0.74500
O977        O  0.55542967  0.27353020  0.69893327    -0.38900
O978        O  0.60224382  0.30165098  0.70006279    -0.38900
O979        O  0.61521650  0.16385189  0.81947580    -0.39600
O980        O  0.66128803  0.19310590  0.82253296    -0.39700
C981        C  0.65418057  0.34559950  0.98466828    -0.11900
C982        C  0.63053936  0.31991312  0.97998331     0.05100
C983        C  0.61565607  0.30520673  0.00857990    -0.07200
C984        C  0.62571729  0.31520602  0.04077469    -0.08000
C985        C  0.65052751  0.33978606  0.04543119    -0.02500
C986        C  0.66431590  0.35550993  0.01682707     0.04300
N987        N  0.68901870  0.38126219  0.01984583     0.66800
H988        H  0.66596572  0.35737208  0.96317026     0.15700
H989        H  0.61456628  0.30287368  0.06229620     0.15400
N990        N  0.59045799  0.27992970  0.00546769     0.74500
O991        O  0.71960889  0.37409823  0.01580450    -0.38900
O992        O  0.67996364  0.41163496  0.02064997    -0.38900
O993        O  0.59689379  0.25009688  0.01399148    -0.39600
O994        O  0.56070191  0.28822302  0.99846601    -0.39700
C995        C  0.49841387  0.30413121  0.89122375    -0.11900
C996        C  0.52531314  0.31874333  0.87385091     0.05100
C997        C  0.51827371  0.34306142  0.84902842    -0.07200
C998        C  0.48502706  0.35068139  0.84078273    -0.08000
C999        C  0.45804367  0.33479019  0.85686767    -0.02500
C1000       C  0.46507355  0.31209987  0.88324200     0.04300
N1001       N  0.43882045  0.29572497  0.90121782     0.66800
H1002       H  0.50322121  0.28574971  0.91070586     0.15700
H1003       H  0.48041904  0.36856988  0.82080436     0.15400
N1004       N  0.54447654  0.35876018  0.83035329     0.74500
O1005       O  0.42896808  0.26714324  0.89182596    -0.38900
O1006       O  0.42993289  0.30686443  0.92953092    -0.38900
O1007       O  0.55307575  0.34686461  0.80225322    -0.42000
O1008       O  0.55529933  0.38710687  0.83941662    -0.39700
loop_ 
_geom_bond_atom_site_label_1 
_geom_bond_atom_site_label_2 
_geom_bond_distance 
_geom_bond_site_symmetry_2 
_ccdc_geom_bond_type 
O1           Ni9   1.917       .  S
O1           C11   1.282       .  A
O2           Ni9   1.919       .  S
O2           C12   1.282       .  A
O3           Ni9   1.918       .  S
O3           C13   1.281       .  A
O4           Ni9   1.918       .  S
O4           C14   1.281       .  A
O5          Ni10   1.916       .  S
O5           C14   1.282       .  A
O6          Ni10   1.916       .  S
O6           C13   1.281       .  A
O7          Ni10   1.914       .  S
O7           C12   1.280       .  A
O8          Ni10   1.916       .  S
O8           C11   1.281       .  A
Ni9         Ni10   2.385       .  S
C11         C954   1.489       .  S
C12         C996   1.485       .  S
C13         C968   1.477       .  S
C14         C982   1.487       .  S
O15         Ni23   1.910       .  S
O15          C25   1.280       .  A
O16         Ni23   1.911       .  S
O16          C26   1.280       .  A
O17         Ni23   1.910       .  S
O17          C27   1.279       .  A
O18         Ni23   1.909       .  S
O18          C28   1.280       .  A
O19         Ni24   1.916       .  S
O19          C28   1.281       .  A
O20         Ni24   1.912       .  S
O20          C27   1.282       .  A
O21         Ni24   1.912       .  S
O21          C26   1.281       .  A
O22         Ni24   1.915       .  S
O22          C25   1.281       .  A
Ni23        Ni24   2.386       .  S
C25         C898   1.477       .  S
C26         C940   1.484       .  S
C27         C926   1.483       .  S
C28         C915   1.476       .  S
O29         Ni37   1.914       .  S
O29          C39   1.281       .  A
O30         Ni37   1.912       .  S
O30          C40   1.282       .  A
O31         Ni37   1.907       .  S
O31          C41   1.280       .  A
O32         Ni37   1.908       .  S
O32          C42   1.279       .  A
O33         Ni38   1.913       .  S
O33          C42   1.281       .  A
O34         Ni38   1.915       .  S
O34          C41   1.281       .  A
O35         Ni38   1.923       .  S
O35          C40   1.282       .  A
O36         Ni38   1.919       .  S
O36          C39   1.282       .  A
Ni37        Ni38   2.387       .  S
C39         C870   1.479       .  S
C40         C999   1.488       .  S
C41         C884   1.479       .  S
C42         C943   1.472       .  S
O43         Ni51   1.911       .  S
O43          C53   1.279       .  A
O44         Ni51   1.906       .  S
O44          C54   1.280       .  A
O45         Ni51   1.918       .  S
O45          C55   1.283       .  A
O46         Ni51   1.911       .  S
O46          C56   1.281       .  A
O47         Ni52   1.918       .  S
O47          C56   1.281       .  A
O48         Ni52   1.916       .  S
O48          C55   1.280       .  A
O49         Ni52   1.918       .  S
O49          C54   1.281       .  A
O50         Ni52   1.918       .  S
O50          C53   1.282       .  A
Ni51        Ni52   2.385       .  S
C53         C814   1.471       .  S
C54         C842   1.484       .  S
C55         C828   1.488       .  S
C56         C859   1.483       .  S
O57         Ni65   1.916       .  S
O57          C67   1.281       .  A
O58         Ni65   1.917       .  S
O58          C68   1.282       .  A
O59         Ni65   1.919       .  S
O59          C69   1.282       .  A
O60         Ni65   1.917       .  S
O60          C70   1.281       .  A
O61         Ni66   1.916       .  S
O61          C70   1.282       .  A
O62         Ni66   1.916       .  S
O62          C69   1.281       .  A
O63         Ni66   1.911       .  S
O63          C68   1.280       .  A
O64         Ni66   1.913       .  S
O64          C67   1.281       .  A
Ni65        Ni66   2.383       .  S
C67         C786   1.486       .  S
C68         C856   1.482       .  S
C69         C985   1.487       .  S
C70         C800   1.487       .  S
O71         Ni79   1.916       .  S
O71          C81   1.280       .  A
O72         Ni79   1.915       .  S
O72          C82   1.282       .  A
O73         Ni79   1.915       .  S
O73          C83   1.280       .  A
O74         Ni79   1.909       .  S
O74          C84   1.280       .  A
O75         Ni80   1.914       .  S
O75          C84   1.281       .  A
O76         Ni80   1.916       .  S
O76          C83   1.280       .  A
O77         Ni80   1.910       .  S
O77          C82   1.280       .  A
O78         Ni80   1.909       .  S
O78          C81   1.282       .  A
Ni79        Ni80   2.388       .  S
C81         C758   1.485       .  S
C82         C929   1.478       .  S
C83         C775   1.466       .  S
C84         C845   1.473       .  S
O85         Ni93   1.916       .  S
O85          C95   1.280       .  A
O86         Ni93   1.916       .  S
O86          C96   1.281       .  A
O87         Ni93   1.923       .  S
O87          C97   1.282       .  A
O88         Ni93   1.924       .  S
O88          C98   1.283       .  A
O89         Ni94   1.905       .  S
O89          C98   1.280       .  A
O90         Ni94   1.909       .  S
O90          C97   1.281       .  A
O91         Ni94   1.908       .  S
O91          C96   1.280       .  A
O92         Ni94   1.911       .  S
O92          C95   1.280       .  A
Ni93        Ni94   2.385       .  S
C95         C716   1.470       .  S
C96         C730   1.479       .  S
C97         C971   1.489       .  S
C98         C744   1.487       .  S
O99        Ni107   1.904       .  S
O99         C109   1.281       .  A
O100       Ni107   1.905       .  S
O100        C110   1.279       .  A
O101       Ni107   1.914       .  S
O101        C111   1.281       .  A
O102       Ni107   1.914       .  S
O102        C112   1.281       .  A
O103       Ni108   1.917       .  S
O103        C112   1.281       .  A
O104       Ni108   1.918       .  S
O104        C111   1.281       .  A
O105       Ni108   1.922       .  S
O105        C110   1.283       .  A
O106       Ni108   1.924       .  S
O106        C109   1.282       .  A
Ni107      Ni108   2.386       .  S
C109        C688   1.485       .  S
C110        C747   1.476       .  S
C111        C674   1.481       .  S
C112        C702   1.486       .  S
O113       Ni121   1.906       .  S
O113        C123   1.280       .  A
O114       Ni121   1.912       .  S
O114        C124   1.281       .  A
O115       Ni121   1.913       .  S
O115        C125   1.281       .  A
O116       Ni121   1.914       .  S
O116        C126   1.280       .  A
O117       Ni122   1.913       .  S
O117        C126   1.279       .  A
O118       Ni122   1.911       .  S
O118        C125   1.281       .  A
O119       Ni122   1.913       .  S
O119        C124   1.281       .  A
O120       Ni122   1.917       .  S
O120        C123   1.281       .  A
Ni121      Ni122   2.387       .  S
C123        C887   1.476       .  S
C124        C663   1.483       .  S
C125        C733   1.483       .  S
C126        C646   1.467       .  S
O127       Ni135   1.910       .  S
O127        C137   1.280       .  A
O128       Ni135   1.909       .  S
O128        C138   1.281       .  A
O129       Ni135   1.906       .  S
O129        C139   1.278       .  A
O130       Ni135   1.903       .  S
O130        C140   1.280       .  A
O131       Ni136   1.922       .  S
O131        C140   1.282       .  A
O132       Ni136   1.925       .  S
O132        C139   1.285       .  A
O133       Ni136   1.920       .  S
O133        C138   1.281       .  A
O134       Ni136   1.918       .  S
O134        C137   1.281       .  A
Ni135      Ni136   2.385       .  S
C137        C604   1.474       .  S
C138        C635   1.484       .  S
C139        C618   1.489       .  S
C140        C660   1.482       .  S
O141       Ni149   1.921       .  S
O141        C151   1.282       .  A
O142       Ni149   1.921       .  S
O142        C152   1.282       .  A
O143       Ni149   1.921       .  S
O143        C153   1.282       .  A
O144       Ni149   1.917       .  S
O144        C154   1.281       .  A
O145       Ni150   1.914       .  S
O145        C154   1.281       .  A
O146       Ni150   1.911       .  S
O146        C153   1.281       .  A
O147       Ni150   1.916       .  S
O147        C152   1.282       .  A
O148       Ni150   1.919       .  S
O148        C151   1.281       .  A
Ni149      Ni150   2.386       .  S
C151        C576   1.478       .  S
C152        C590   1.487       .  S
C153        C705   1.487       .  S
C154        C831   1.481       .  S
O155       Ni163   1.915       .  S
O155        C165   1.282       .  A
O156       Ni163   1.915       .  S
O156        C166   1.281       .  A
O157       Ni163   1.913       .  S
O157        C167   1.280       .  A
O158       Ni163   1.913       .  S
O158        C168   1.280       .  A
O159       Ni164   1.915       .  S
O159        C168   1.280       .  A
O160       Ni164   1.913       .  S
O160        C167   1.280       .  A
O161       Ni164   1.922       .  S
O161        C166   1.283       .  A
O162       Ni164   1.923       .  S
O162        C165   1.282       .  A
Ni163      Ni164   2.387       .  S
C165        C562   1.490       .  S
C166        C593   1.490       .  S
C167        C761   1.468       .  S
C168        C632   1.471       .  S
O169       Ni177   1.922       .  S
O169        C179   1.283       .  A
O170       Ni177   1.918       .  S
O170        C180   1.282       .  A
O171       Ni177   1.919       .  S
O171        C181   1.282       .  A
O172       Ni177   1.919       .  S
O172        C182   1.281       .  A
O173       Ni178   1.912       .  S
O173        C182   1.281       .  A
O174       Ni178   1.915       .  S
O174        C181   1.281       .  A
O175       Ni178   1.911       .  S
O175        C180   1.280       .  A
O176       Ni178   1.911       .  S
O176        C179   1.280       .  A
Ni177      Ni178   2.385       .  S
C179        C772   1.486       .  S
C180        C548   1.485       .  S
C181        C520   1.477       .  S
C182        C534   1.485       .  S
O183       Ni191   1.918       .  S
O183        C193   1.281       .  A
O184       Ni191   1.913       .  S
O184        C194   1.281       .  A
O185       Ni191   1.914       .  S
O185        C195   1.281       .  A
O186       Ni191   1.913       .  S
O186        C196   1.280       .  A
O187       Ni192   1.909       .  S
O187        C196   1.281       .  A
O188       Ni192   1.909       .  S
O188        C195   1.280       .  A
O189       Ni192   1.916       .  S
O189        C194   1.281       .  A
O190       Ni192   1.922       .  S
O190        C193   1.283       .  A
Ni191      Ni192   2.383       .  S
C193        C579   1.493       .  S
C194        C551   1.481       .  S
C195        C495   1.482       .  S
C196        C506   1.482       .  S
O197       Ni205   1.914       .  S
O197        C207   1.280       .  A
O198       Ni205   1.913       .  S
O198        C208   1.282       .  A
O199       Ni205   1.918       .  S
O199        C209   1.281       .  A
O200       Ni205   1.915       .  S
O200        C210   1.282       .  A
O201       Ni206   1.906       .  S
O201        C210   1.279       .  A
O202       Ni206   1.906       .  S
O202        C209   1.280       .  A
O203       Ni206   1.917       .  S
O203        C208   1.281       .  A
O204       Ni206   1.916       .  S
O204        C207   1.283       .  A
Ni205      Ni206   2.384       .  S
C207        C607   1.487       .  S
C208        C537   1.486       .  S
C209        C901   1.482       .  S
C210        C478   1.478       .  S
O211       Ni219   1.911       .  S
O211        C221   1.281       .  A
O212       Ni219   1.909       .  S
O212        C222   1.279       .  A
O213       Ni219   1.910       .  S
O213        C223   1.281       .  A
O214       Ni219   1.910       .  S
O214        C224   1.279       .  A
O215       Ni220   1.915       .  S
O215        C224   1.282       .  A
O216       Ni220   1.917       .  S
O216        C223   1.281       .  A
O217       Ni220   1.913       .  S
O217        C222   1.282       .  A
O218       Ni220   1.917       .  S
O218        C221   1.281       .  A
Ni219      Ni220   2.384       .  S
C221        C450   1.485       .  S
C222        C481   1.483       .  S
C223        C649   1.485       .  S
C224        C464   1.483       .  S
O225       Ni233   1.916       .  S
O225        C235   1.281       .  A
O226       Ni233   1.914       .  S
O226        C236   1.281       .  A
O227       Ni233   1.921       .  S
O227        C237   1.282       .  A
O228       Ni233   1.917       .  S
O228        C238   1.281       .  A
O229       Ni234   1.904       .  S
O229        C238   1.280       .  A
O230       Ni234   1.908       .  S
O230        C237   1.280       .  A
O231       Ni234   1.910       .  S
O231        C236   1.280       .  A
O232       Ni234   1.910       .  S
O232        C235   1.280       .  A
Ni233      Ni234   2.387       .  S
C235        C691   1.477       .  S
C236        C439   1.480       .  S
C237        C789   1.478       .  S
C238        C509   1.477       .  S
O239       Ni247   1.917       .  S
O239        C249   1.281       .  A
O240       Ni247   1.914       .  S
O240        C250   1.282       .  A
O241       Ni247   1.910       .  S
O241        C251   1.280       .  A
O242       Ni247   1.910       .  S
O242        C252   1.280       .  A
O243       Ni248   1.915       .  S
O243        C252   1.282       .  A
O244       Ni248   1.921       .  S
O244        C251   1.283       .  A
O245       Ni248   1.912       .  S
O245        C250   1.280       .  A
O246       Ni248   1.914       .  S
O246        C249   1.281       .  A
Ni247      Ni248   2.385       .  S
C249        C957   1.476       .  S
C250        C467   1.483       .  S
C251        C422   1.486       .  S
C252        C436   1.482       .  S
O253       Ni261   1.911       .  S
O253        C263   1.281       .  A
O254       Ni261   1.915       .  S
O254        C264   1.282       .  A
O255       Ni261   1.906       .  S
O255        C265   1.278       .  A
O256       Ni261   1.907       .  S
O256        C266   1.280       .  A
O257       Ni262   1.929       .  S
O257        C266   1.283       .  A
O258       Ni262   1.924       .  S
O258        C265   1.283       .  A
O259       Ni262   1.918       .  S
O259        C264   1.281       .  A
O260       Ni262   1.914       .  S
O260        C263   1.280       .  A
Ni261      Ni262   2.385       .  S
C263        C912   1.483       .  S
C264        C394   1.485       .  S
C265        C621   1.475       .  S
C266        C408   1.488       .  S
O267       Ni275   1.912       .  S
O267        C277   1.280       .  A
O268       Ni275   1.913       .  S
O268        C278   1.280       .  A
O269       Ni275   1.915       .  S
O269        C279   1.282       .  A
O270       Ni275   1.910       .  S
O270        C280   1.280       .  A
O271       Ni276   1.918       .  S
O271        C280   1.282       .  A
O272       Ni276   1.920       .  S
O272        C279   1.281       .  A
O273       Ni276   1.922       .  S
O273        C278   1.283       .  A
O274       Ni276   1.920       .  S
O274        C277   1.281       .  A
Ni275      Ni276   2.385       .  S
C277        C453   1.478       .  S
C278        C411   1.489       .  S
C279        C873   1.489       .  S
C280        C383   1.478       .  S
O281       Ni289   1.921       .  S
O281        C291   1.282       .  A
O282       Ni289   1.922       .  S
O282        C292   1.282       .  A
O283       Ni289   1.913       .  S
O283        C293   1.281       .  A
O284       Ni289   1.914       .  S
O284        C294   1.280       .  A
O285       Ni290   1.921       .  S
O285        C294   1.282       .  A
O286       Ni290   1.920       .  S
O286        C293   1.282       .  A
O287       Ni290   1.914       .  S
O287        C292   1.281       .  A
O288       Ni290   1.913       .  S
O288        C291   1.281       .  A
Ni289      Ni290   2.384       .  S
C291        C523   1.490       .  S
C292        C397   1.490       .  S
C293        C369   1.480       .  S
C294        C565   1.481       .  S
O295       Ni303   1.915       .  S
O295        C305   1.280       .  A
O296       Ni303   1.909       .  S
O296        C306   1.281       .  A
O297       Ni303   1.913       .  S
O297        C307   1.282       .  A
O298       Ni303   1.914       .  S
O298        C308   1.280       .  A
O299       Ni304   1.915       .  S
O299        C308   1.282       .  A
O300       Ni304   1.914       .  S
O300        C307   1.280       .  A
O301       Ni304   1.916       .  S
O301        C306   1.280       .  A
O302       Ni304   1.918       .  S
O302        C305   1.282       .  A
Ni303      Ni304   2.384       .  S
C305        C425   1.480       .  S
C306        C355   1.481       .  S
C307        C380   1.487       .  S
C308        C719   1.487       .  S
O309       Ni317   1.913       .  S
O309        C319   1.282       .  A
O310       Ni317   1.914       .  S
O310        C320   1.282       .  A
O311       Ni317   1.908       .  S
O311        C321   1.279       .  A
O312       Ni317   1.910       .  S
O312        C322   1.279       .  A
O313       Ni318   1.915       .  S
O313        C322   1.281       .  A
O314       Ni318   1.915       .  S
O314        C321   1.280       .  A
O315       Ni318   1.918       .  S
O315        C320   1.282       .  A
O316       Ni318   1.916       .  S
O316        C319   1.281       .  A
Ni317      Ni318   2.387       .  S
C319        C817   1.487       .  S
C320        C366   1.490       .  S
C321        C492   1.465       .  S
C322        C338   1.471       .  S
O323       Ni331   1.916       .  S
O323        C333   1.281       .  A
O324       Ni331   1.915       .  S
O324        C334   1.282       .  A
O325       Ni331   1.915       .  S
O325        C335   1.281       .  A
O326       Ni331   1.911       .  S
O326        C336   1.281       .  A
O327       Ni332   1.914       .  S
O327        C336   1.280       .  A
O328       Ni332   1.918       .  S
O328        C335   1.281       .  A
O329       Ni332   1.913       .  S
O329        C334   1.280       .  A
O330       Ni332   1.917       .  S
O330        C333   1.282       .  A
Ni331      Ni332   2.385       .  S
C333        C677   1.485       .  S
C334        C341   1.486       .  S
C335        C803   1.479       .  S
C336        C352   1.483       .  S
C337        C338   1.400       .  A
C337        C342   1.400       .  A
C337        H344   1.085       .  S
C338        C339   1.409       .  A
C339        C340   1.397       .  A
C339        N346   1.430       .  S
C340        C341   1.406       .  A
C340        H345   1.084       .  S
C341        C342   1.416       .  A
C342        N343   1.429       .  S
N343        O347   1.262       .  A
N343        O348   1.262       .  A
N346        O350   1.262       .  A
N346        O349   1.262       .  A
C351        C352   1.406       .  A
C351        C356   1.399       .  A
C351        H358   1.085       .  S
C352        C353   1.414       .  A
C353        C354   1.398       .  A
C353        N360   1.429       .  S
C354        C355   1.404       .  A
C354        H359   1.085       .  S
C355        C356   1.412       .  A
C356        N357   1.429       .  S
N357        O361   1.262       .  A
N357        O362   1.262       .  A
N360        O364   1.262       .  A
N360        O363   1.262       .  A
C365        C366   1.408       .  A
C365        C370   1.401       .  A
C365        H372   1.086       .  S
C366        C367   1.416       .  A
C367        C368   1.399   1_655  A
C367        N374   1.429       .  S
C368        C369   1.403       .  A
C368        H373   1.086       .  S
C369        C370   1.409   1_455  A
C370        N371   1.429   1_655  S
N371        O375   1.262   1_455  A
N371        O376   1.262       .  A
N374        O378   1.262       .  A
N374        O377   1.262       .  A
C379        C380   1.405       .  A
C379        C384   1.396   1_655  A
C379        H386   1.085       .  S
C380        C381   1.417       .  A
C381        C382   1.401       .  A
C381        N388   1.429       .  S
C382        C383   1.402   1_655  A
C382        H387   1.085   1_655  S
C383        C384   1.411       .  A
C384        N385   1.429       .  S
N385        O389   1.261       .  A
N385        O390   1.262       .  A
N388        O392   1.262       .  A
N388        O391   1.262       .  A
C393        C394   1.404       .  A
C393        C398   1.401       .  A
C393        H400   1.084       .  S
C394        C395   1.413       .  A
C395        C396   1.400       .  A
C395        N402   1.429       .  S
C396        C397   1.407       .  A
C396        H401   1.084       .  S
C397        C398   1.415       .  A
C398        N399   1.428       .  S
N399        O403   1.262       .  A
N399        O404   1.262       .  A
N402        O406   1.262       .  A
N402        O405   1.262       .  A
C407        C408   1.405       .  A
C407        C412   1.398       .  A
C407        H414   1.085       .  S
C408        C409   1.414       .  A
C409        C410   1.404       .  A
C409        N416   1.428       .  S
C410        C411   1.407       .  A
C410        H415   1.084       .  S
C411        C412   1.414       .  A
C412        N413   1.429       .  S
N413        O417   1.262       .  A
N413        O418   1.262       .  A
N416        O420   1.261       .  A
N416        O419   1.262       .  A
C421        C422   1.406       .  A
C421        C426   1.401       .  A
C421        H428   1.085       .  S
C422        C423   1.416       .  A
C423        C424   1.398       .  A
C423        N430   1.429       .  S
C424        C425   1.402       .  A
C424        H429   1.085       .  S
C425        C426   1.412       .  A
C426        N427   1.429       .  S
N427        O431   1.262       .  A
N427        O432   1.262       .  A
N430        O434   1.262       .  A
N430        O433   1.262       .  A
C435        C436   1.404       .  A
C435        C440   1.398   1_556  A
C435        H442   1.085       .  S
C436        C437   1.414   1_556  A
C437        C438   1.398       .  A
C437        N444   1.430       .  S
C438        C439   1.404       .  A
C438        H443   1.085       .  S
C439        C440   1.413       .  A
C440        N441   1.429       .  S
N441        O445   1.262       .  A
N441        O446   1.262       .  A
N444        O448   1.262   1_554  A
N444        O447   1.262       .  A
C449        C450   1.406       .  A
C449        C454   1.398       .  A
C449        H456   1.086       .  S
C450        C451   1.414       .  A
C451        C452   1.399       .  A
C451        N458   1.429       .  S
C452        C453   1.403       .  A
C452        H457   1.086       .  S
C453        C454   1.410       .  A
C454        N455   1.429       .  S
N455        O459   1.262       .  A
N455        O460   1.262       .  A
N458        O462   1.262       .  A
N458        O461   1.262       .  A
C463        C464   1.404   1_655  A
C463        C468   1.399       .  A
C463        H470   1.085   1_655  S
C464        C465   1.414       .  A
C465        C466   1.398   1_455  A
C465        N472   1.429       .  S
C466        C467   1.404       .  A
C466        H471   1.085       .  S
C467        C468   1.415       .  A
C468        N469   1.430       .  S
N469        O473   1.262       .  A
N469        O474   1.262       .  A
N472        O476   1.262       .  A
N472        O475   1.262       .  A
C477        C478   1.402       .  A
C477        C482   1.398   1_565  A
C477        H484   1.085       .  S
C478        C479   1.414       .  A
C479        C480   1.398       .  A
C479        N486   1.432       .  S
C480        C481   1.405   1_565  A
C480        H485   1.084       .  S
C481        C482   1.415       .  A
C482        N483   1.429       .  S
N483        O487   1.262       .  A
N483        O488   1.262       .  A
N486        O490   1.262       .  A
N486        O489   1.262       .  A
C491        C492   1.398       .  A
C491        C496   1.397       .  A
C491        H498   1.086       .  S
C492        C493   1.406       .  A
C493        C494   1.398       .  A
C493        N500   1.429       .  S
C494        C495   1.407       .  A
C494        H499   1.086       .  S
C495        C496   1.416       .  A
C496        N497   1.429       .  S
N497        O501   1.262       .  A
N497        O502   1.262       .  A
N500        O504   1.262       .  A
N500        O503   1.262       .  A
C505        C506   1.406       .  A
C505        C510   1.398   1_565  A
C505        H512   1.085       .  S
C506        C507   1.413       .  A
C507        C508   1.396       .  A
C507        N514   1.429       .  S
C508        C509   1.403   1_565  A
C508        H513   1.085       .  S
C509        C510   1.411       .  A
C510        N511   1.430       .  S
N511        O515   1.262       .  A
N511        O516   1.262       .  A
N514        O518   1.262       .  A
N514        O517   1.262       .  A
C519        C520   1.402       .  A
C519        C524   1.401       .  A
C519        H526   1.084       .  S
C520        C521   1.408       .  A
C521        C522   1.401       .  A
C521        N528   1.430       .  S
C522        C523   1.409       .  A
C522        H527   1.083       .  S
C523        C524   1.416       .  A
C524        N525   1.429       .  S
N525        O529   1.262       .  A
N525        O530   1.262       .  A
N528        O532   1.262       .  A
N528        O531   1.262       .  A
C533        C534   1.405       .  A
C533        C538   1.400   1_554  A
C533        H540   1.085       .  S
C534        C535   1.413       .  A
C535        C536   1.400   1_554  A
C535        N542   1.429       .  S
C536        C537   1.406       .  A
C536        H541   1.085       .  S
C537        C538   1.414       .  A
C538        N539   1.429       .  S
N539        O543   1.262       .  A
N539        O544   1.262       .  A
N542        O546   1.262       .  A
N542        O545   1.262       .  A
C547        C548   1.406       .  A
C547        C552   1.401   1_455  A
C547        H554   1.085       .  S
C548        C549   1.414       .  A
C549        C550   1.397   1_455  A
C549        N556   1.429       .  S
C550        C551   1.403       .  A
C550        H555   1.085       .  S
C551        C552   1.412       .  A
C552        N553   1.429       .  S
N553        O557   1.262       .  A
N553        O558   1.262       .  A
N556        O560   1.262       .  A
N556        O559   1.262   1_455  A
C561        C562   1.408       .  A
C561        C566   1.399       .  A
C561        H568   1.085       .  S
C562        C563   1.416       .  A
C563        C564   1.402       .  A
C563        N570   1.429       .  S
C564        C565   1.403       .  A
C564        H569   1.085       .  S
C565        C566   1.410       .  A
C566        N567   1.429       .  S
N567        O571   1.262       .  A
N567        O572   1.262       .  A
N570        O574   1.262       .  A
N570        O573   1.262       .  A
C575        C576   1.400       .  A
C575        C580   1.402       .  A
C575        H582   1.086       .  S
C576        C577   1.408       .  A
C577        C578   1.402       .  A
C577        N584   1.430       .  S
C578        C579   1.409       .  A
C578        H583   1.085       .  S
C579        C580   1.419       .  A
C580        N581   1.430       .  S
N581        O585   1.262       .  A
N581        O586   1.262       .  A
N584        O588   1.262       .  A
N584        O587   1.262       .  A
C589        C590   1.406       .  A
C589        C594   1.400       .  A
C589        H596   1.084       .  S
C590        C591   1.412       .  A
C591        C592   1.402       .  A
C591        N598   1.429       .  S
C592        C593   1.408       .  A
C592        H597   1.084       .  S
C593        C594   1.414       .  A
C594        N595   1.429       .  S
N595        O599   1.262       .  A
N595        O600   1.262       .  A
N598        O602   1.262       .  A
N598        O601   1.262       .  A
C603        C604   1.401       .  A
C603        C608   1.401       .  A
C603        H610   1.084       .  S
C604        C605   1.409       .  A
C605        C606   1.398       .  A
C605        N612   1.431       .  S
C606        C607   1.406       .  A
C606        H611   1.083       .  S
C607        C608   1.417       .  A
C608        N609   1.429       .  S
N609        O613   1.262       .  A
N609        O614   1.262       .  A
N612        O616   1.262       .  A
N612        O615   1.262       .  A
C617        C618   1.406       .  A
C617        C622   1.399       .  A
C617        H624   1.085       .  S
C618        C619   1.420       .  A
C619        C620   1.401       .  A
C619        N626   1.430       .  S
C620        C621   1.399       .  A
C620        H625   1.085       .  S
C621        C622   1.411       .  A
C622        N623   1.430       .  S
N623        O627   1.262       .  A
N623        O628   1.262       .  A
N626        O630   1.262       .  A
N626        O629   1.262       .  A
C631        C632   1.402       .  A
C631        C636   1.404       .  A
C631        H638   1.085       .  S
C632        C633   1.407       .  A
C633        C634   1.395       .  A
C633        N640   1.430       .  S
C634        C635   1.405       .  A
C634        H639   1.084       .  S
C635        C636   1.416       .  A
C636        N637   1.429       .  S
N637        O641   1.262       .  A
N637        O642   1.262       .  A
N640        O644   1.262       .  A
N640        O643   1.262       .  A
C645        C646   1.400       .  A
C645        C650   1.402       .  A
C645        H652   1.085       .  S
C646        C647   1.406       .  A
C647        C648   1.396       .  A
C647        N654   1.429       .  S
C648        C649   1.406       .  A
C648        H653   1.084       .  S
C649        C650   1.417       .  A
C650        N651   1.429       .  S
N651        O655   1.262       .  A
N651        O656   1.262       .  A
N654        O658   1.262       .  A
N654        O657   1.262       .  A
C659        C660   1.405       .  A
C659        C664   1.395   1_565  A
C659        H666   1.085       .  S
C660        C661   1.412       .  A
C661        C662   1.401       .  A
C661        N668   1.429       .  S
C662        C663   1.407   1_565  A
C662        H667   1.085       .  S
C663        C664   1.412       .  A
C664        N665   1.429       .  S
N665        O669   1.262       .  A
N665        O670   1.262       .  A
N668        O672   1.262       .  A
N668        O671   1.262       .  A
C673        C674   1.404       .  A
C673        C678   1.399       .  A
C673        H680   1.084       .  S
C674        C675   1.411       .  A
C675        C676   1.401       .  A
C675        N682   1.429       .  S
C676        C677   1.406       .  A
C676        H681   1.084       .  S
C677        C678   1.414       .  A
C678        N679   1.429       .  S
N679        O683   1.262       .  A
N679        O684   1.262       .  A
N682        O686   1.262       .  A
N682        O685   1.261       .  A
C687        C688   1.406       .  A
C687        C692   1.394       .  A
C687        H694   1.085       .  S
C688        C689   1.416       .  A
C689        C690   1.404       .  A
C689        N696   1.430       .  S
C690        C691   1.404       .  A
C690        H695   1.085       .  S
C691        C692   1.409       .  A
C692        N693   1.429       .  S
N693        O697   1.262       .  A
N693        O698   1.262       .  A
N696        O700   1.262       .  A
N696        O699   1.262       .  A
C701        C702   1.406       .  A
C701        C706   1.400   1_545  A
C701        H708   1.085       .  S
C702        C703   1.413   1_545  A
C703        C704   1.399       .  A
C703        N710   1.429       .  S
C704        C705   1.406       .  A
C704        H709   1.085       .  S
C705        C706   1.413       .  A
C706        N707   1.429       .  S
N707        O711   1.262       .  A
N707        O712   1.262       .  A
N710        O714   1.262       .  A
N710        O713   1.262       .  A
C715        C716   1.400       .  A
C715        C720   1.399       .  A
C715        H722   1.086       .  S
C716        C717   1.407       .  A
C717        C718   1.399       .  A
C717        N724   1.429       .  S
C718        C719   1.408       .  A
C718        H723   1.085       .  S
C719        C720   1.417       .  A
C720        N721   1.429       .  S
N721        O725   1.262       .  A
N721        O726   1.262       .  A
N724        O728   1.262       .  A
N724        O727   1.262       .  A
C729        C730   1.404       .  A
C729        C734   1.397       .  A
C729        H736   1.085       .  S
C730        C731   1.411       .  A
C731        C732   1.399       .  A
C731        N738   1.429       .  S
C732        C733   1.407       .  A
C732        H737   1.085       .  S
C733        C734   1.413       .  A
C734        N735   1.429       .  S
N735        O739   1.262       .  A
N735        O740   1.262       .  A
N738        O742   1.262       .  A
N738        O741   1.262       .  A
C743        C744   1.409       .  A
C743        C748   1.398       .  A
C743        H750   1.084       .  S
C744        C745   1.414       .  A
C745        C746   1.399       .  A
C745        N752   1.429       .  S
C746        C747   1.404       .  A
C746        H751   1.085       .  S
C747        C748   1.407       .  A
C748        N749   1.429       .  S
N749        O753   1.262       .  A
N749        O754   1.262       .  A
N752        O756   1.262       .  A
N752        O755   1.262       .  A
C757        C758   1.406       .  A
C757        C762   1.394       .  A
C757        H764   1.085       .  S
C758        C759   1.417       .  A
C759        C760   1.401       .  A
C759        N766   1.429       .  S
C760        C761   1.400       .  A
C760        H765   1.085       .  S
C761        C762   1.405       .  A
C762        N763   1.428       .  S
N763        O767   1.262       .  A
N763        O768   1.262       .  A
N766        O770   1.262       .  A
N766        O769   1.262       .  A
C771        C772   1.408       .  A
C771        C776   1.401       .  A
C771        H778   1.082       .  S
C772        C773   1.417       .  A
C773        C774   1.400       .  A
C773        N780   1.429       .  S
C774        C775   1.398       .  A
C774        H779   1.083       .  S
C775        C776   1.406       .  A
C776        N777   1.430       .  S
N777        O781   1.262       .  A
N777        O782   1.262       .  A
N780        O784   1.262       .  A
N780        O783   1.262       .  A
C785        C786   1.408       .  A
C785        C790   1.400       .  A
C785        H792   1.085       .  S
C786        C787   1.415       .  A
C787        C788   1.398       .  A
C787        N794   1.429       .  S
C788        C789   1.403       .  A
C788        H793   1.085       .  S
C789        C790   1.410       .  A
C790        N791   1.430       .  S
N791        O795   1.262       .  A
N791        O796   1.262       .  A
N794        O798   1.262       .  A
N794        O797   1.262       .  A
C799        C800   1.407       .  A
C799        C804   1.399       .  A
C799        H806   1.085       .  S
C800        C801   1.416       .  A
C801        C802   1.401       .  A
C801        N808   1.430       .  S
C802        C803   1.403       .  A
C802        H807   1.086       .  S
C803        C804   1.410       .  A
C804        N805   1.429       .  S
N805        O809   1.262       .  A
N805        O810   1.262       .  A
N808        O812   1.262       .  A
N808        O811   1.262       .  A
C813        C814   1.400       .  A
C813        C818   1.400       .  A
C813        H820   1.085       .  S
C814        C815   1.406       .  A
C815        C816   1.398       .  A
C815        N822   1.430       .  S
C816        C817   1.408       .  A
C816        H821   1.085       .  S
C817        C818   1.417       .  A
C818        N819   1.429       .  S
N819        O823   1.262       .  A
N819        O824   1.262       .  A
N822        O826   1.262       .  A
N822        O825   1.262       .  A
C827        C828   1.407       .  A
C827        C832   1.400       .  A
C827        H834   1.084       .  S
C828        C829   1.417       .  A
C829        C830   1.401       .  A
C829        N836   1.432       .  S
C830        C831   1.403       .  A
C830        H835   1.084       .  S
C831        C832   1.411       .  A
C832        N833   1.430       .  S
N833        O837   1.262       .  A
N833        O838   1.262       .  A
N836        O840   1.262       .  A
N836        O839   1.262       .  A
C841        C842   1.407       .  A
C841        C846   1.395       .  A
C841        H848   1.085       .  S
C842        C843   1.415       .  A
C843        C844   1.400       .  A
C843        N850   1.429       .  S
C844        C845   1.403       .  A
C844        H849   1.085       .  S
C845        C846   1.407       .  A
C846        N847   1.428       .  S
N847        O851   1.262       .  A
N847        O852   1.261       .  A
N850        O854   1.262       .  A
N850        O853   1.262       .  A
C855        C856   1.405       .  A
C855        C860   1.400       .  A
C855        H862   1.085       .  S
C856        C857   1.412       .  A
C857        C858   1.398       .  A
C857        N864   1.429       .  S
C858        C859   1.405       .  A
C858        H863   1.085       .  S
C859        C860   1.413       .  A
C860        N861   1.429       .  S
N861        O865   1.262       .  A
N861        O866   1.262       .  A
N864        O868   1.262       .  A
N864        O867   1.262       .  A
C869        C870   1.403       .  A
C869        C874   1.402       .  A
C869        H876   1.085       .  S
C870        C871   1.410       .  A
C871        C872   1.398       .  A
C871        N878   1.430       .  S
C872        C873   1.407       .  A
C872        H877   1.085       .  S
C873        C874   1.417       .  A
C874        N875   1.430       .  S
N875        O879   1.262       .  A
N875        O880   1.262       .  A
N878        O882   1.262       .  A
N878        O881   1.262       .  A
C883        C884   1.406       .  A
C883        C888   1.397       .  A
C883        H890   1.085       .  S
C884        C885   1.412       .  A
C885        C886   1.397       .  A
C885        N892   1.428       .  S
C886        C887   1.404       .  A
C886        H891   1.085       .  S
C887        C888   1.410       .  A
C888        N889   1.429       .  S
N889        O893   1.262       .  A
N889        O894   1.262       .  A
N892        O896   1.261       .  A
N892        O895   1.262       .  A
C897        C898   1.404       .  A
C897        C902   1.401       .  A
C897        H904   1.085       .  S
C898        C899   1.410       .  A
C899        C900   1.395       .  A
C899        N906   1.429       .  S
C900        C901   1.405       .  A
C900        H905   1.085       .  S
C901        C902   1.414       .  A
C902        N903   1.429       .  S
N903        O907   1.262       .  A
N903        O908   1.262       .  A
N906        O910   1.262       .  A
N906        O909   1.262       .  A
C911        C912   1.407       .  A
C911        C916   1.399       .  A
C911        H918   1.085       .  S
C912        C913   1.415       .  A
C913        C914   1.397       .  A
C913        N920   1.430       .  S
C914        C915   1.402       .  A
C914        H919   1.085       .  S
C915        C916   1.410       .  A
C916        N917   1.430       .  S
N917        O921   1.262       .  A
N917        O922   1.262       .  A
N920        O924   1.262       .  A
N920        O923   1.262       .  A
C925        C926   1.405       .  A
C925        C930   1.397   1_556  A
C925        H932   1.085       .  S
C926        C927   1.415   1_556  A
C927        C928   1.399       .  A
C927        N934   1.429   1_554  S
C928        C929   1.403       .  A
C928        H933   1.085       .  S
C929        C930   1.410       .  A
C930        N931   1.429       .  S
N931        O935   1.261       .  A
N931        O936   1.262   1_554  A
N934        O938   1.262   1_556  A
N934        O937   1.262       .  A
C939        C940   1.408       .  A
C939        C944   1.398       .  A
C939        H946   1.084       .  S
C940        C941   1.416       .  A
C941        C942   1.397       .  A
C941        N948   1.429       .  S
C942        C943   1.401       .  A
C942        H947   1.085       .  S
C943        C944   1.408       .  A
C944        N945   1.429       .  S
N945        O949   1.262       .  A
N945        O950   1.262       .  A
N948        O952   1.262       .  A
N948        O951   1.262       .  A
C953        C954   1.408       .  A
C953        C958   1.401       .  A
C953        H960   1.085       .  S
C954        C955   1.417       .  A
C955        C956   1.399       .  A
C955        N962   1.429       .  S
C956        C957   1.401       .  A
C956        H961   1.086       .  S
C957        C958   1.410       .  A
C958        N959   1.432       .  S
N959        O963   1.262       .  A
N959        O964   1.262       .  A
N962        O966   1.262       .  A
N962        O965   1.262       .  A
C967        C968   1.403       .  A
C967        C972   1.403       .  A
C967        H974   1.086       .  S
C968        C969   1.409       .  A
C969        C970   1.398       .  A
C969        N976   1.431       .  S
C970        C971   1.408       .  A
C970        H975   1.085       .  S
C971        C972   1.416       .  A
C972        N973   1.430       .  S
N973        O977   1.262       .  A
N973        O978   1.262       .  A
N976        O980   1.262       .  A
N976        O979   1.262       .  A
C981        C982   1.405       .  A
C981        C986   1.400   1_556  A
C981        H988   1.085       .  S
C982        C983   1.414   1_556  A
C983        C984   1.401       .  A
C983        N990   1.430       .  S
C984        C985   1.406       .  A
C984        H989   1.085       .  S
C985        C986   1.414       .  A
C986        N987   1.429       .  S
N987        O991   1.262       .  A
N987        O992   1.262       .  A
N990        O994   1.262   1_554  A
N990        O993   1.262       .  A
C995        C996   1.405       .  A
C995       C1000   1.402       .  A
C995       H1002   1.085       .  S
C996        C997   1.413       .  A
C997        C998   1.398       .  A
C997       N1004   1.429       .  S
C998        C999   1.405       .  A
C998       H1003   1.085       .  S
C999       C1000   1.415       .  A
C1000      N1001   1.428       .  S
N1001      O1005   1.261       .  A
N1001      O1006   1.262       .  A
N1004      O1008   1.262       .  A
N1004      O1007   1.262       .  A
