geometry optimzed in LAMMPS
_audit_creation_date              2020-12-01 
_audit_creation_method            'lammps2cif' 
_symmetry_space_group_name_H-M    'P1' 
_symmetry_Int_Tables_number       1 
_symmetry_cell_setting            triclinic 
loop_ 
_symmetry_equiv_pos_as_xyz 
  x,y,z 
_cell_length_a                    41.76027684 
_cell_length_b                    42.96281285010124 
_cell_length_c                    42.21658692646213 
_cell_angle_alpha                 89.6070178272474 
_cell_angle_beta                  90.56958053588691 
_cell_angle_gamma                 90.19717034429462 
loop_ 
_atom_site_label 
_atom_site_type_symbol 
_atom_site_fract_x 
_atom_site_fract_y 
_atom_site_fract_z 
_atom_site_charge 
C1          C  0.80491574  0.82927683  0.02460895     0.79500
N2          N  0.82338079  0.85512996  0.02091824    -0.78800
C3          C  0.83665986  0.86203724  0.99254380     0.81900
N4          N  0.83150540  0.84273631  0.96747705    -0.78800
C5          C  0.81287283  0.81670023  0.97085214     0.82000
N6          N  0.79963974  0.81035070  0.99943937    -0.80500
C7          C  0.75911120  0.18310430  0.03065958     0.79500
N8          N  0.78651001  0.16564826  0.03075886    -0.78800
C9          C  0.79804824  0.15362330  0.00322556     0.81900
N10         N  0.78144197  0.15876718  0.97557453    -0.78800
C11         C  0.75387672  0.17600936  0.97537958     0.82000
N12         N  0.74338477  0.18819113  0.00291978    -0.80500
C13         C  0.16858190  0.86301324  0.02415494     0.79500
N14         N  0.14316957  0.88246351  0.02185222    -0.78800
C15         C  0.13519717  0.89589637  0.99386108     0.81900
N16         N  0.15292530  0.88993918  0.96772469    -0.78800
C17         C  0.17863096  0.87038062  0.96980505     0.82000
N18         N  0.18607358  0.85691971  0.99806533    -0.80500
C19         C  0.80141564  0.04696796  0.80839321     0.79500
N20         N  0.82190211  0.04386326  0.83329216    -0.78800
C21         C  0.83308612  0.01561289  0.84204430     0.81900
N22         N  0.82368453  0.98990183  0.82570519    -0.78800
C23         C  0.80293727  0.99274976  0.80060250     0.82000
N24         N  0.79189968  0.02133794  0.79222714    -0.80500
C25         C  0.94953068  0.20110630  0.81319113     0.79500
N26         N  0.97720748  0.20485517  0.79717262    -0.78800
C27         C  0.00486547  0.19173143  0.80774153     0.81900
N28         N  0.00471325  0.17480715  0.83541668    -0.78800
C29         C  0.97704942  0.17118194  0.85217330     0.82000
N30         N  0.94952217  0.18409426  0.84064048    -0.80500
C31         C  0.94730161  0.86622902  0.80775817     0.79500
N32         N  0.95135000  0.88445999  0.83363663    -0.78800
C33         C  0.98016699  0.89775219  0.83996819     0.81900
N34         N  0.00518522  0.89286324  0.82017228    -0.78800
C35         C  0.00127396  0.87453200  0.79409934     0.82000
N36         N  0.97235636  0.86130974  0.78831284    -0.80500
C37         C  0.17030990  0.06039530  0.84314107     0.79500
N38         N  0.14582738  0.06039708  0.86401748    -0.78800
C39         C  0.12906171  0.03408829  0.86974541     0.81900
N40         N  0.13666192  0.00751180  0.85463221    -0.78800
C41         C  0.16118327  0.00706638  0.83369839     0.82000
N42         N  0.17788788  0.03367398  0.82791056    -0.80500
C43         C  0.93950230  0.81253135  0.15361133     0.79500
N44         N  0.96731397  0.79756228  0.15971050    -0.78800
C45         C  0.99572823  0.80956271  0.15053461     0.81900
N46         N  0.99637640  0.83766693  0.13513439    -0.78800
C47         C  0.96859102  0.85337769  0.12896942     0.82000
N48         N  0.94013423  0.84059631  0.13815769    -0.80500
C49         C  0.77446288  0.04547268  0.17417060     0.79500
N50         N  0.75651449  0.02003744  0.18159424    -0.78800
C51         C  0.76276370  0.99184460  0.16868587     0.81900
N52         N  0.78774958  0.98913140  0.14819092    -0.78800
C53         C  0.80621001  0.01438002  0.14090469     0.82000
N54         N  0.79936178  0.04239339  0.15386631    -0.80500
C55         C  0.93386022  0.16975140  0.22104372     0.79500
N56         N  0.96249166  0.18055617  0.23161586    -0.78800
C57         C  0.98985690  0.17485249  0.21584734     0.81900
N58         N  0.98855379  0.15802748  0.18849922    -0.78800
C59         C  0.95996622  0.14716365  0.17707054     0.82000
N60         N  0.93260633  0.15307403  0.19350882    -0.80500
Zr61       Zr  0.25438264  0.29570386  0.29417816     2.17500
O62         O  0.28939190  0.28086751  0.33833431    -0.52100
O63         O  0.26117679  0.35113945  0.29389032    -0.75300
O64         O  0.30778064  0.30885968  0.28152615    -0.82000
O65         O  0.18281804  0.30025555  0.34825959    -0.83800
O66         O  0.31630531  0.29565180  0.23021513    -0.79400
O67         O  0.23535897  0.31350202  0.34327922    -0.91100
O68         O  0.22705392  0.37145100  0.25719477    -0.77000
O69         O  0.25389878  0.31067948  0.24006337    -0.86500
O70         O  0.20193277  0.31488152  0.28434145    -0.86200
O71         O  0.27095305  0.25021050  0.26692257    -0.73000
O72         O  0.21986656  0.25420953  0.30986052    -0.85100
Zr73       Zr  0.18171634  0.24071456  0.21680257     2.26400
Zr74       Zr  0.26869229  0.26516100  0.21184016     2.06300
Zr75       Zr  0.16677417  0.27316887  0.29827295     2.10000
Zr76       Zr  0.20111980  0.32858221  0.22986195     1.78800
O77         O  0.14403776  0.24438182  0.34251026    -0.93900
O78         O  0.22682894  0.36150454  0.19026827    -0.41700
O79         O  0.16512185  0.28691999  0.24301556    -0.78300
O80         O  0.21523912  0.28304448  0.20064590    -0.97000
O81         O  0.23445183  0.22267139  0.22630152    -0.90300
O82         O  0.18204181  0.22677597  0.27120261    -0.93200
C83         C  0.24841343  0.37407141  0.27906922     1.00600
C84         C  0.20905598  0.31332057  0.35824407     1.13500
C85         C  0.32462787  0.30887235  0.25656649     1.04300
O86         O  0.28719076  0.29567504  0.16676269    -0.95300
O87         O  0.25248515  0.23857443  0.16178510    -0.91100
O88         O  0.20279005  0.21872222  0.17028342    -0.84200
C89         C  0.22766779  0.22226141  0.15346767     1.10900
O90         O  0.27118490  0.20030665  0.32569366    -0.97300
Zr91       Zr  0.23496424  0.20878563  0.28087822     1.88900
O92         O  0.17451667  0.18507430  0.21857721    -0.73900
O93         O  0.31247708  0.22843455  0.20613818    -0.53200
O94         O  0.27882517  0.17463828  0.26650692    -0.97900
O95         O  0.20998956  0.17799416  0.32270370    -0.55100
O96         O  0.21050189  0.16504431  0.25357529    -0.74500
C97         C  0.18836196  0.16215314  0.23251569     0.97900
O98         O  0.14706702  0.25214339  0.17135495    -0.63300
O99         O  0.12543619  0.31282916  0.30187549    -0.58100
O100        O  0.12719210  0.23123544  0.22809634    -0.94800
O101        O  0.11743556  0.24625297  0.27864902    -0.93200
O102        O  0.15598490  0.36091209  0.24471945    -0.93500
O103        O  0.16689093  0.33854230  0.18390144    -0.92300
C104        C  0.10933126  0.23291761  0.25229703     1.16700
H105        H  0.19738801  0.33306536  0.29681782     0.32700
H106        H  0.21256345  0.28706183  0.17823498     0.43500
H107        H  0.16701477  0.21019779  0.27550507     0.37000
H108        H  0.29258964  0.24476595  0.27301018     0.33500
H109        H  0.21966266  0.38290073  0.19505951     0.25300
H110        H  0.32791030  0.23382617  0.22320703     0.31300
H111        H  0.27573863  0.15567094  0.27960083     0.37200
H112        H  0.16260813  0.38237833  0.23907398     0.31600
H113        H  0.13723276  0.33284650  0.30239321     0.30500
H114        H  0.15401989  0.22356398  0.34135908     0.32200
H115        H  0.21691118  0.15635485  0.31876672     0.31200
H116        H  0.14717541  0.32636846  0.18798759     0.35100
H117        H  0.13395203  0.27004591  0.17802576     0.27900
H118        H  0.29989672  0.30044847  0.34514334     0.32100
H119        H  0.26275117  0.21358194  0.34275570     0.35000
H120        H  0.11461699  0.31271147  0.28089831     0.27600
H121        H  0.16131959  0.26091039  0.15492671     0.40400
H122        H  0.27424163  0.31491748  0.16728314     0.30500
H123        H  0.24983840  0.36136601  0.19615974     0.38100
H124        H  0.18680733  0.17793915  0.31762508     0.30000
H125        H  0.30331414  0.20818264  0.21283327     0.30000
H126        H  0.30675578  0.26846878  0.32887376     0.30300
C127        C  0.15238881  0.04001593  0.18823661     0.79500
N128        N  0.12688491  0.03707776  0.16832058    -0.78800
C129        C  0.11954230  0.00937737  0.15504610     0.81900
N130        N  0.13823976  0.98413060  0.16138468    -0.78800
C131        C  0.16393622  0.98678754  0.18152097     0.82000
N132        N  0.17070576  0.01474096  0.19487872    -0.80500
Zr133      Zr  0.25383683  0.72777286  0.27707334     2.17500
O134        O  0.29740755  0.69311185  0.26288287    -0.52100
O135        O  0.25180618  0.71759163  0.33291359    -0.75300
O136        O  0.30176729  0.74528383  0.30216383    -0.82000
O137        O  0.18760719  0.66846596  0.26703522    -0.83800
O138        O  0.30998606  0.79623112  0.28982564    -0.79400
O139        O  0.23931848  0.67494411  0.28340734    -0.91100
O140        O  0.21562734  0.75052262  0.35406304    -0.77000
O141        O  0.24550598  0.77757465  0.29897312    -0.86500
O142        O  0.19854607  0.72887300  0.28964438    -0.86200
O143        O  0.27246366  0.76280836  0.23730028    -0.73000
O144        O  0.22713756  0.71610739  0.22831283    -0.85100
Zr145      Zr  0.17928464  0.80379662  0.22308970     2.26400
Zr146      Zr  0.26232598  0.81340753  0.25892277     2.06300
Zr147      Zr  0.17115240  0.71808054  0.24096629     2.10000
Zr148      Zr  0.19010449  0.77902509  0.31089073     1.78800
O149        O  0.16595057  0.67819164  0.20056967    -0.93900
O150        O  0.20596437  0.82128542  0.34595109    -0.41700
O151        O  0.16097247  0.76857701  0.26284237    -0.78300
O152        O  0.20630266  0.81597952  0.27144892    -0.97000
O153        O  0.23434575  0.80342317  0.21040343    -0.90300
O154        O  0.18796623  0.75396468  0.20084755    -0.93200
C155        C  0.23691030  0.72910611  0.35637497     1.00600
C156        C  0.21377623  0.65890863  0.28051838     1.13500
C157        C  0.31796438  0.77044145  0.30370837     1.04300
O158        O  0.27183876  0.85251457  0.29941163    -0.95300
O159        O  0.24534859  0.86387492  0.23556295    -0.91100
O160        O  0.19557242  0.85598747  0.21455258    -0.84200
C161        C  0.22003993  0.87291198  0.22024136     1.10900
O162        O  0.28454591  0.71552365  0.17647290    -0.97300
Zr163      Zr  0.24338843  0.75345051  0.18894515     1.88900
O164        O  0.18133293  0.81481927  0.16764376    -0.73900
O165        O  0.30786946  0.83001262  0.22727142    -0.53200
O166        O  0.28945319  0.77997577  0.16617884    -0.97900
O167        O  0.22954935  0.71656234  0.14731795    -0.55100
O168        O  0.22021015  0.78499874  0.14645698    -0.74500
C169        C  0.19810863  0.80565018  0.14439444     0.97900
O170        O  0.13604601  0.83869275  0.23767317    -0.63300
O171        O  0.12360933  0.69929304  0.26811992    -0.58100
O172        O  0.12986224  0.78741589  0.20067216    -0.94800
O173        O  0.12229487  0.73608802  0.21205058    -0.93200
O174        O  0.14822296  0.75308350  0.34106188    -0.93500
O175        O  0.14439763  0.81254108  0.32095915    -0.92300
C176        C  0.11364768  0.76228004  0.19929580     1.16700
H177        H  0.19309506  0.71358459  0.30557960     0.32700
H178        H  0.20091361  0.83675315  0.27813816     0.43500
H179        H  0.17579184  0.75098467  0.18152860     0.37000
H180        H  0.29512581  0.75995535  0.23407519     0.33500
H181        H  0.20494758  0.81224233  0.36754892     0.25300
H182        H  0.32109818  0.84286448  0.24175639     0.31300
H183        H  0.28557062  0.80236168  0.16993946     0.37200
H184        H  0.15000998  0.76193118  0.36261105     0.31600
H185        H  0.12051952  0.67777962  0.26036559     0.30500
H186        H  0.16601411  0.68982808  0.18025239     0.32200
H187        H  0.20988566  0.72488936  0.13714150     0.31200
H188        H  0.14938665  0.83238594  0.31000651     0.35100
H189        H  0.12093887  0.82548856  0.24977118     0.27900
H190        H  0.30628861  0.68551964  0.28334673     0.32100
H191        H  0.29942372  0.71580251  0.19485890     0.35000
H192        H  0.13047761  0.69673909  0.29050004     0.27600
H193        H  0.14553861  0.85273751  0.25373916     0.40400
H194        H  0.29166332  0.86330941  0.29273785     0.30500
H195        H  0.22911507  0.82427857  0.34208551     0.38100
H196        H  0.22229598  0.69765939  0.15874991     0.30000
H197        H  0.32065344  0.81094487  0.22409701     0.30000
H198        H  0.31430258  0.70685923  0.25420441     0.30300
Zr199      Zr  0.75630114  0.24574116  0.22065915     2.17500
O200        O  0.79995814  0.26067233  0.18575442    -0.52100
O201        O  0.75592745  0.19039820  0.21159175    -0.75300
O202        O  0.80417250  0.22361865  0.24088312    -0.82000
O203        O  0.69342965  0.25503621  0.15537586    -0.83800
O204        O  0.80765767  0.23182762  0.29403607    -0.79400
O205        O  0.74351576  0.23714334  0.16647346    -0.91100
O206        O  0.71820964  0.16913872  0.24342752    -0.77000
O207        O  0.74575221  0.22439137  0.27151937    -0.86500
O208        O  0.70112064  0.23277249  0.21871262    -0.86200
O209        O  0.77294734  0.28477000  0.25761260    -0.73000
O210        O  0.73042471  0.29333423  0.20643067    -0.85100
Zr211      Zr  0.67826767  0.29849303  0.29297965     2.26400
Zr212      Zr  0.76016697  0.26375226  0.30910750     2.06300
Zr213      Zr  0.67427552  0.28026990  0.20530615     2.10000
Zr214      Zr  0.69049842  0.21180184  0.26955497     1.78800
O215        O  0.66824207  0.32000818  0.16429334    -0.93900
O216        O  0.70288745  0.17717067  0.31393927    -0.41700
O217        O  0.66208350  0.25891358  0.25666801    -0.78300
O218        O  0.70406368  0.25093571  0.30784061    -0.97000
O219        O  0.73339375  0.31123024  0.29578039    -0.90300
O220        O  0.68964137  0.31970910  0.24232013    -0.93200
C221        C  0.74058986  0.16701056  0.22282420     1.00600
C222        C  0.71949276  0.24048236  0.14789284     1.13500
C223        C  0.81790016  0.22018633  0.26773259     1.04300
O224        O  0.76463476  0.22591930  0.35221326    -0.95300
O225        O  0.74070459  0.29086393  0.35787990    -0.91100
O226        O  0.69034676  0.30788875  0.34677601    -0.84200
C227        C  0.71448177  0.30521622  0.36521917     1.10900
O228        O  0.79038262  0.34058598  0.21011931    -0.97300
Zr229      Zr  0.74495637  0.33201455  0.24496167     1.88900
O230        O  0.67960403  0.35384029  0.30294925    -0.73900
O231        O  0.80659818  0.29224963  0.32920438    -0.53200
O232        O  0.78848280  0.35835952  0.27285585    -0.97900
O233        O  0.73089169  0.37010722  0.20414212    -0.55100
O234        O  0.71977669  0.37443411  0.27370076    -0.74500
C235        C  0.69655756  0.37689608  0.29330680     0.97900
O236        O  0.63284371  0.28282523  0.32523521    -0.63300
O237        O  0.62746124  0.25208069  0.18583659    -0.58100
O238        O  0.63023769  0.32068319  0.27351277    -0.94800
O239        O  0.62512872  0.30940743  0.22111254    -0.93200
O240        O  0.65139230  0.18181825  0.23933461    -0.93500
O241        O  0.64211986  0.20202999  0.29986960    -0.92300
C242        C  0.61545529  0.32224274  0.24704477     1.16700
H243        H  0.69652381  0.21696689  0.20315730     0.32700
H244        H  0.69713863  0.24440514  0.32861398     0.43500
H245        H  0.67785036  0.33862048  0.23824073     0.37000
H246        H  0.79575169  0.28823226  0.25612645     0.33500
H247        H  0.68877740  0.15885896  0.31080745     0.25300
H248        H  0.81272635  0.28112539  0.34896248     0.31300
H249        H  0.78260487  0.35718070  0.29549720     0.37200
H250        H  0.63423354  0.19688792  0.23404357     0.31600
H251        H  0.62179345  0.26261047  0.16561826     0.30500
H252        H  0.65983838  0.33841605  0.17544962     0.32200
H253        H  0.71061380  0.37956496  0.21119303     0.31200
H254        H  0.64590670  0.21246964  0.32040040     0.35100
H255        H  0.61959478  0.26956320  0.31114480     0.27900
H256        H  0.80987313  0.24078927  0.17938331     0.32100
H257        H  0.79395738  0.36338282  0.20984639     0.35000
H258        H  0.63572855  0.23150368  0.17947364     0.27600
H259        H  0.64175487  0.26817254  0.34120259     0.40400
H260        H  0.74278279  0.22413730  0.36093607     0.30500
H261        H  0.72468742  0.16936745  0.30964187     0.38100
H262        H  0.72464701  0.35744795  0.18555567     0.30000
H263        H  0.82409737  0.28772593  0.31429191     0.30000
H264        H  0.81611962  0.27068525  0.19968403     0.30300
Zr265      Zr  0.67913976  0.73325586  0.27791827     2.17500
O266        O  0.64058010  0.69368118  0.26127864    -0.52100
O267        O  0.67454837  0.72902424  0.33475471    -0.75300
O268        O  0.69753665  0.68355588  0.29447173    -0.82000
O269        O  0.61787954  0.79830934  0.27912088    -0.83800
O270        O  0.74908151  0.67715957  0.27888725    -0.79400
O271        O  0.62630475  0.74738274  0.29167547    -0.91100
O272        O  0.70929446  0.76352801  0.35665675    -0.77000
O273        O  0.73264184  0.73854144  0.29637768    -0.86500
O274        O  0.68259804  0.78540208  0.29594086    -0.86200
O275        O  0.71142047  0.71967631  0.23365955    -0.73000
O276        O  0.66315214  0.76429396  0.23335132    -0.85100
Zr277      Zr  0.75377910  0.81140901  0.22639769     2.26400
Zr278      Zr  0.76562111  0.72683493  0.25203309     2.06300
Zr279      Zr  0.66719322  0.81708428  0.25155158     2.10000
Zr280      Zr  0.73628691  0.79078584  0.31397622     1.78800
O281        O  0.62330007  0.82736779  0.21451953    -0.93900
O282        O  0.78142659  0.76935850  0.34378778    -0.41700
O283        O  0.72120511  0.82415839  0.27051614    -0.78300
O284        O  0.77065293  0.77972351  0.27033530    -0.97000
O285        O  0.75093904  0.75940656  0.20825652    -0.90300
O286        O  0.70042813  0.80528018  0.20738946    -0.93200
C287        C  0.68765458  0.74236270  0.35866690     1.00600
C288        C  0.60941993  0.77203678  0.29187737     1.13500
C289        C  0.72320668  0.66775681  0.29285149     1.04300
O290        O  0.81047390  0.71733357  0.28802915    -0.95300
O291        O  0.81319742  0.74523267  0.22175977    -0.91100
O292        O  0.80538753  0.79638675  0.20953457    -0.84200
C293        C  0.82166733  0.77137318  0.20872555     1.10900
O294        O  0.65656388  0.71423935  0.17858101    -0.97300
Zr295      Zr  0.69772129  0.75299254  0.18979203     1.88900
O296        O  0.75908113  0.81617236  0.16990210    -0.73900
O297        O  0.78152490  0.68504276  0.21675648    -0.53200
O298        O  0.71904773  0.71076210  0.15823508    -0.97900
O299        O  0.65734362  0.77376595  0.15342427    -0.55100
O300        O  0.72906164  0.77763235  0.14813030    -0.74500
C301        C  0.74911636  0.80030968  0.14619951     0.97900
O302        O  0.79178441  0.85097163  0.24416661    -0.63300
O303        O  0.65223099  0.85953595  0.28625357    -0.58100
O304        O  0.73622524  0.86216806  0.21209855    -0.94800
O305        O  0.68397596  0.86726405  0.22611928    -0.93200
O306        O  0.71817938  0.82702298  0.35406110    -0.93500
O307        O  0.77024295  0.83586600  0.32419788    -0.92300
C308        C  0.71020044  0.87751399  0.21346559     1.16700
H309        H  0.66852266  0.78908690  0.31350441     0.32700
H310        H  0.79265644  0.78422897  0.27595329     0.43500
H311        H  0.69588359  0.81905099  0.18974638     0.37000
H312        H  0.70782973  0.69819241  0.22797068     0.33500
H313        H  0.78125090  0.78066057  0.36415059     0.25300
H314        H  0.80143547  0.67657121  0.22632059     0.31300
H315        H  0.73915485  0.70473616  0.16923635     0.37200
H316        H  0.69451370  0.82566605  0.35336443     0.31600
H317        H  0.64227080  0.84930314  0.30480284     0.30500
H318        H  0.60451526  0.83159940  0.22792979     0.32200
H319        H  0.66786039  0.79136935  0.14236351     0.31200
H320        H  0.79223600  0.82884529  0.31954068     0.35100
H321        H  0.78026054  0.86264195  0.26065703     0.27900
H322        H  0.63563588  0.68161392  0.28070900     0.32100
H323        H  0.63981562  0.71797072  0.19453977     0.35000
H324        H  0.67289148  0.86764164  0.29449634     0.27600
H325        H  0.80855054  0.83940346  0.25602740     0.40400
H326        H  0.81688790  0.69560218  0.28380260     0.30500
H327        H  0.77471796  0.74790530  0.34939768     0.38100
H328        H  0.64146282  0.78371975  0.16731859     0.30000
H329        H  0.76538678  0.66836556  0.21967005     0.30000
H330        H  0.65282429  0.67914629  0.24795473     0.30300
C331        C  0.17286982  0.18667959  0.03573224     0.79500
N332        N  0.18130313  0.20089454  0.00832918    -0.78800
C333        C  0.16270326  0.19901017  0.98197211     0.81900
N334        N  0.13461130  0.18253656  0.98316856    -0.78800
C335        C  0.12564798  0.16787471  0.01054618     0.82000
N336        N  0.14493266  0.17003286  0.03676025    -0.80500
Zr337      Zr  0.17998961  0.25176651  0.79541671     2.17500
O338        O  0.12912271  0.24580181  0.82266644    -0.52100
O339        O  0.19671560  0.20214323  0.81582002    -0.75300
O340        O  0.14754359  0.21560359  0.76622275    -0.82000
O341        O  0.23125004  0.27296725  0.86156695    -0.83800
O342        O  0.12846379  0.24219567  0.72447206    -0.79400
O343        O  0.17924605  0.27036087  0.84838415    -0.91100
O344        O  0.23230954  0.18408651  0.78014728    -0.77000
O345        O  0.19796271  0.23199782  0.74648634    -0.86500
O346        O  0.23662812  0.24854934  0.80224853    -0.86200
O347        O  0.15925628  0.28744263  0.75644874    -0.73000
O348        O  0.19655211  0.30354526  0.80807639    -0.85100
Zr349      Zr  0.25241439  0.31662110  0.72629076     2.26400
Zr350      Zr  0.17901365  0.26779824  0.70698222     2.06300
Zr351      Zr  0.25366805  0.30032907  0.81412607     2.10000
Zr352      Zr  0.25435849  0.22928635  0.75298502     1.78800
O353        O  0.25166132  0.34785213  0.84505818    -0.93900
O354        O  0.25008116  0.19178540  0.71009385    -0.41700
O355        O  0.27306911  0.28068792  0.76487147    -0.78300
O356        O  0.23635525  0.26487334  0.71295453    -0.97000
O357        O  0.19614967  0.31968365  0.71901847    -0.90300
O358        O  0.23398530  0.33668347  0.77527294    -0.93200
C359        C  0.21320926  0.18035284  0.80353931     1.00600
C360        C  0.20189866  0.26595014  0.86819792     1.13500
C361        C  0.12455558  0.22293015  0.74774742     1.04300
O362        O  0.17785200  0.22068331  0.67528251    -0.95300
O363        O  0.20370340  0.28577855  0.65652919    -0.91100
O364        O  0.24739207  0.31466813  0.67024477    -0.84200
C365        C  0.22884020  0.30219289  0.64973373     1.10900
O366        O  0.13025728  0.33747426  0.80145074    -0.97300
Zr367      Zr  0.17758995  0.33898267  0.76813018     1.88900
O368        O  0.23727462  0.36753972  0.70893285    -0.73900
O369        O  0.13719586  0.29105581  0.67396293    -0.53200
O370        O  0.13152229  0.35571873  0.73660436    -0.97900
O371        O  0.17979931  0.38112050  0.80650971    -0.55100
O372        O  0.19603624  0.38451551  0.73872090    -0.74500
C373        C  0.21748458  0.38838466  0.71747300     0.97900
O374        O  0.30435723  0.31402222  0.70024002    -0.63300
O375        O  0.29368137  0.28452548  0.85337383    -0.58100
O376        O  0.29049355  0.34933673  0.75234513    -0.94800
O377        O  0.30624103  0.31966720  0.79356524    -0.93200
O378        O  0.29764458  0.20698990  0.78469389    -0.93500
O379        O  0.30475178  0.22787003  0.72443598    -0.92300
C380        C  0.31222891  0.33942260  0.77104269     1.16700
H381        H  0.24358494  0.23486389  0.81916887     0.32700
H382        H  0.24600163  0.25853386  0.69335250     0.43500
H383        H  0.24174523  0.35741384  0.77973300     0.37000
H384        H  0.13614967  0.28773108  0.75696137     0.33500
H385        H  0.26594311  0.17548093  0.71553514     0.25300
H386        H  0.12419507  0.27324521  0.66635914     0.31300
H387        H  0.13944731  0.35689133  0.71460104     0.37200
H388        H  0.30568701  0.22454894  0.79763562     0.31600
H389        H  0.31119196  0.27523954  0.84098179     0.30500
H390        H  0.23686003  0.34281819  0.86255570     0.32200
H391        H  0.19962004  0.39284056  0.80164553     0.31200
H392        H  0.31197191  0.24980826  0.72343347     0.35100
H393        H  0.31953607  0.30633003  0.71661274     0.27900
H394        H  0.12586854  0.22307633  0.82504630     0.32100
H395        H  0.12047230  0.35835800  0.79942689     0.35000
H396        H  0.30269438  0.30424594  0.86161675     0.27600
H397        H  0.30264262  0.29640392  0.68533860     0.40400
H398        H  0.16276973  0.22541814  0.65767467     0.30500
H399        H  0.22904645  0.18154975  0.71315516     0.38100
H400        H  0.18447875  0.37066561  0.82700258     0.30000
H401        H  0.12316394  0.30189870  0.68906263     0.30000
H402        H  0.11249838  0.25271125  0.80732175     0.30300
Zr403      Zr  0.18151377  0.81054545  0.78578343     2.17500
O404        O  0.14083974  0.79702105  0.82462099    -0.52100
O405        O  0.17958216  0.86610376  0.78955940    -0.75300
O406        O  0.19983158  0.82571407  0.83683439    -0.82000
O407        O  0.12376148  0.81445233  0.71591670    -0.83800
O408        O  0.25071490  0.80881084  0.84569072    -0.79400
O409        O  0.13003705  0.82638572  0.76807879    -0.91100
O410        O  0.21846349  0.88706602  0.75890966    -0.77000
O411        O  0.23591024  0.82582172  0.78329698    -0.86500
O412        O  0.18832281  0.82883703  0.73312517    -0.86200
O413        O  0.21067980  0.76544417  0.80176169    -0.73000
O414        O  0.16481757  0.76804362  0.75358067    -0.85100
Zr415      Zr  0.25760213  0.75668386  0.71119271     2.26400
Zr416      Zr  0.26593996  0.78042934  0.79727488     2.06300
Zr417      Zr  0.17288140  0.78620047  0.70014560     2.10000
Zr418      Zr  0.24288365  0.84393560  0.73064801     1.78800
O419        O  0.12590212  0.75553642  0.68569204    -0.93900
O420        O  0.28781582  0.87218406  0.75411052    -0.41700
O421        O  0.22809689  0.80202021  0.69572919    -0.78300
O422        O  0.27415245  0.79893190  0.74405029    -0.97000
O423        O  0.25107329  0.73818747  0.76376657    -0.90300
O424        O  0.20317405  0.74125891  0.71489154    -0.93200
C425        C  0.19543126  0.88929124  0.77873075     1.00600
C426        C  0.11438518  0.82697393  0.74199971     1.13500
C427        C  0.22518821  0.82357787  0.85377982     1.04300
O428        O  0.31363496  0.81041926  0.81082882    -0.95300
O429        O  0.31367094  0.74980687  0.78280857    -0.91100
O430        O  0.30775630  0.73808908  0.73052807    -0.84200
C431        C  0.32282154  0.73676992  0.75695134     1.10900
O432        O  0.15264398  0.71075444  0.80306756    -0.97300
Zr433      Zr  0.19645439  0.72336833  0.76746035     1.88900
O434        O  0.25928454  0.70092232  0.70709848    -0.73900
O435        O  0.27134235  0.74382931  0.84130821    -0.53200
O436        O  0.21382380  0.69142026  0.81232334    -0.97900
O437        O  0.15447175  0.69276137  0.74180167    -0.55100
O438        O  0.22408426  0.68064359  0.74233266    -0.74500
C439        C  0.24533449  0.67798064  0.72077766     0.97900
O440        O  0.29946766  0.77115892  0.67391766    -0.63300
O441        O  0.16414373  0.82244956  0.65633347    -0.58100
O442        O  0.23990819  0.74159577  0.65968491    -0.94800
O443        O  0.18793534  0.75613317  0.65229532    -0.93200
O444        O  0.22349044  0.88093996  0.69100516    -0.93500
O445        O  0.28382030  0.85298370  0.69087795    -0.92300
C446        C  0.21374875  0.74194745  0.64378828     1.16700
H447        H  0.17521151  0.84681015  0.72852821     0.32700
H448        H  0.29658541  0.80341230  0.74089623     0.43500
H449        H  0.19816415  0.72403614  0.70115952     0.37000
H450        H  0.20588370  0.76004970  0.82345889     0.33500
H451        H  0.28843994  0.89228978  0.74253002     0.25300
H452        H  0.27977371  0.72458357  0.83173455     0.31300
H453        H  0.23572713  0.68463250  0.80695570     0.37200
H454        H  0.21449701  0.86783984  0.67386656     0.31600
H455        H  0.18379613  0.82109384  0.64349937     0.30500
H456        H  0.11483871  0.76803873  0.66913970     0.32200
H457        H  0.16463944  0.68289443  0.72333561     0.31200
H458        H  0.27563332  0.84246860  0.67162107     0.35100
H459        H  0.28807802  0.77950593  0.65503458     0.27900
H460        H  0.13528594  0.81695966  0.83481312     0.32100
H461        H  0.15867748  0.72025759  0.82358632     0.35000
H462        H  0.14731508  0.81251576  0.64312541     0.27600
H463        H  0.30996217  0.78960683  0.68343107     0.40400
H464        H  0.31018882  0.83093350  0.80057502     0.30500
H465        H  0.28064398  0.87768458  0.77564320     0.38100
H466        H  0.13982894  0.70844620  0.73239095     0.30000
H467        H  0.28938480  0.75204796  0.85417161     0.30000
H468        H  0.15225089  0.78500943  0.84132280     0.30300
Zr469      Zr  0.75187248  0.24548229  0.79743834     2.17500
O470        O  0.78328392  0.26010846  0.84432244    -0.52100
O471        O  0.76267099  0.19091502  0.79428001    -0.75300
O472        O  0.73145463  0.21932366  0.84257436    -0.82000
O473        O  0.82132542  0.26536543  0.74258490    -0.83800
O474        O  0.67863920  0.23114405  0.84643024    -0.79400
O475        O  0.80787969  0.24160777  0.78890584    -0.91100
O476        O  0.73573441  0.17210797  0.75168748    -0.77000
O477        O  0.70344094  0.22681610  0.78029534    -0.86500
O478        O  0.75825110  0.23709748  0.74241970    -0.86200
O479        O  0.71354764  0.28264127  0.81423594    -0.73000
O480        O  0.76593797  0.29527969  0.77596481    -0.85100
Zr481      Zr  0.68103211  0.30177004  0.71967633     2.26400
Zr482      Zr  0.66373259  0.26013106  0.79705777     2.06300
Zr483      Zr  0.77033881  0.28708386  0.71983683     2.10000
Zr484      Zr  0.70818131  0.21560654  0.72731571     1.78800
O485        O  0.80764255  0.33076640  0.71962517    -0.93900
O486        O  0.66784964  0.17493005  0.73235608    -0.41700
O487        O  0.72003224  0.26496575  0.70310971    -0.78300
O488        O  0.66754446  0.25186006  0.74106824    -0.97000
O489        O  0.67521061  0.31044566  0.77479508    -0.90300
O490        O  0.73075552  0.32428268  0.73496833    -0.93200
C491        C  0.75409411  0.16878260  0.77594341     1.00600
C492        C  0.82817753  0.24915672  0.76778281     1.13500
C493        C  0.70467247  0.21801945  0.85668608     1.04300
O494        O  0.62528819  0.21761707  0.80012449    -0.95300
O495        O  0.61241669  0.28101809  0.77360913    -0.91100
O496        O  0.62478606  0.29978317  0.72478579    -0.84200
C497        C  0.60470730  0.29301643  0.74624526     1.10900
O498        O  0.76351215  0.34182548  0.83324489    -0.97300
Zr499      Zr  0.72545227  0.33205387  0.79027784     1.88900
O500        O  0.66380480  0.35435026  0.72832605    -0.73900
O501        O  0.63893432  0.28764486  0.84103052    -0.53200
O502        O  0.70391646  0.35261115  0.83922113    -0.97900
O503        O  0.75921490  0.37558846  0.77394840    -0.55100
O504        O  0.68858194  0.37235903  0.77257335    -0.74500
C505        C  0.66924308  0.37546278  0.74894393     0.97900
O506        O  0.65483282  0.29207118  0.66864150    -0.63300
O507        O  0.79844553  0.26173820  0.67676672    -0.58100
O508        O  0.70178634  0.32926270  0.67559152    -0.94800
O509        O  0.75322902  0.31348735  0.66907748    -0.93200
O510        O  0.74078736  0.19508388  0.68442664    -0.93500
O511        O  0.67650699  0.20857961  0.67879018    -0.92300
C512        C  0.72752935  0.32804077  0.65973040     1.16700
H513        H  0.77507560  0.22240617  0.73811457     0.32700
H514        H  0.64730313  0.24454947  0.73273293     0.43500
H515        H  0.73421822  0.34408590  0.72457055     0.37000
H516        H  0.71413480  0.28459007  0.83700310     0.33500
H517        H  0.67858402  0.15567767  0.72536292     0.25300
H518        H  0.62742793  0.27136501  0.85318172     0.31300
H519        H  0.68112424  0.34622224  0.83893043     0.37200
H520        H  0.74122670  0.17225680  0.68782599     0.31600
H521        H  0.81686953  0.27559503  0.67227450     0.30500
H522        H  0.79393235  0.34950979  0.71907551     0.32200
H523        H  0.78143457  0.36800342  0.77673031     0.31200
H524        H  0.65704734  0.22133804  0.68146259     0.35100
H525        H  0.67076513  0.28038730  0.65624927     0.27900
H526        H  0.79095437  0.24028988  0.85375609     0.32100
H527        H  0.77921759  0.32468967  0.83202419     0.35000
H528        H  0.80813486  0.24283415  0.68633068     0.27600
H529        H  0.63778204  0.27655546  0.67275066     0.40400
H530        H  0.61599092  0.21624176  0.77851169     0.30500
H531        H  0.66531713  0.17219219  0.75549454     0.38100
H532        H  0.75660519  0.39136615  0.79070666     0.30000
H533        H  0.65691707  0.29385559  0.85511085     0.30000
H534        H  0.76765183  0.26814543  0.85971160     0.30300
Zr535      Zr  0.74456427  0.80889748  0.79255377     2.17500
O536        O  0.72743918  0.84194308  0.83587972    -0.52100
O537        O  0.80075132  0.82033083  0.79340512    -0.75300
O538        O  0.76748763  0.78983394  0.84073410    -0.82000
O539        O  0.73388147  0.87122523  0.72932832    -0.83800
O540        O  0.75612686  0.73819897  0.84582582    -0.79400
O541        O  0.75154395  0.86227964  0.77980821    -0.91100
O542        O  0.82313556  0.79239097  0.75408379    -0.77000
O543        O  0.76855218  0.76011964  0.78224594    -0.86500
O544        O  0.75819321  0.81116982  0.73802226    -0.86200
O545        O  0.70546662  0.77127932  0.80809732    -0.73000
O546        O  0.69553524  0.82097951  0.76560243    -0.85100
Zr547      Zr  0.69339757  0.73528814  0.71388647     2.26400
Zr548      Zr  0.72916319  0.72187259  0.79576251     2.06300
Zr549      Zr  0.70906187  0.82184952  0.71039801     2.10000
Zr550      Zr  0.78154980  0.76226704  0.72769065     1.78800
O551        O  0.66474275  0.85839684  0.70592159    -0.93900
O552        O  0.82239471  0.72488326  0.74381831    -0.41700
O553        O  0.73291551  0.77251116  0.69873821    -0.78300
O554        O  0.74259003  0.72327011  0.74050831    -0.97000
O555        O  0.67982314  0.73236957  0.76831737    -0.90300
O556        O  0.66956392  0.78407606  0.72459432    -0.93200
C557        C  0.82473700  0.81170211  0.77712269     1.00600
C558        C  0.74814087  0.87953564  0.75531820     1.13500
C559        C  0.76848704  0.76404347  0.85583458     1.04300
O560        O  0.77356088  0.68572373  0.80244587    -0.95300
O561        O  0.70865400  0.67122045  0.77524348    -0.91100
O562        O  0.69105438  0.68129149  0.72516565    -0.84200
C563        C  0.69670242  0.66275238  0.74822111     1.10900
O564        O  0.64578464  0.82000551  0.81997746    -0.97300
Zr565      Zr  0.65700341  0.78172177  0.77926968     1.88900
O566        O  0.63746012  0.72177587  0.71565846    -0.73900
O567        O  0.70045962  0.69846980  0.83989692    -0.53200
O568        O  0.63439677  0.75538624  0.82514934    -0.97900
O569        O  0.61187002  0.81553198  0.76625123    -0.55100
O570        O  0.61548011  0.75013938  0.75491065    -0.74500
C571        C  0.61372098  0.73016821  0.73250436     0.97900
O572        O  0.71049911  0.70659429  0.66735571    -0.63300
O573        O  0.73504898  0.84513008  0.66458450    -0.58100
O574        O  0.67102493  0.75332929  0.66521900    -0.94800
O575        O  0.68350312  0.80471538  0.65981685    -0.93200
O576        O  0.80786436  0.79038683  0.68490138    -0.93500
O577        O  0.79606420  0.72807242  0.68432493    -0.92300
C578        C  0.67092437  0.77896054  0.64980210     1.16700
H579        H  0.77393462  0.82707363  0.73357072     0.32700
H580        H  0.75031925  0.70316963  0.73398973     0.43500
H581        H  0.65017843  0.78701769  0.71229030     0.37000
H582        H  0.70154867  0.77262341  0.83056108     0.33500
H583        H  0.84168726  0.73111321  0.73184957     0.25300
H584        H  0.67760067  0.70253846  0.83509704     0.31300
H585        H  0.61103501  0.75886186  0.82314638     0.37200
H586        H  0.79012444  0.79955964  0.67226374     0.31600
H587        H  0.72430723  0.86546832  0.66161514     0.30500
H588        H  0.64522314  0.84526094  0.70622048     0.32200
H589        H  0.59325983  0.80572177  0.77677691     0.31200
H590        H  0.78370763  0.70867569  0.68781519     0.35100
H591        H  0.72584603  0.72071840  0.65668433     0.27900
H592        H  0.74744784  0.84819588  0.84694585     0.32100
H593        H  0.65887195  0.83843771  0.81430261     0.35000
H594        H  0.75692237  0.85044645  0.67205740     0.27600
H595        H  0.72404021  0.68940704  0.67552477     0.40400
H596        H  0.78123854  0.68183192  0.78072770     0.30500
H597        H  0.82761865  0.73015776  0.76607819     0.38100
H598        H  0.60772115  0.81253688  0.74334759     0.30000
H599        H  0.70289227  0.67572393  0.83722440     0.30000
H600        H  0.71654136  0.82774252  0.85090680     0.30300
C601        C  0.48990418  0.67729038  0.70370193     0.79500
N602        N  0.46412111  0.68656171  0.72036720    -0.78800
C603        C  0.43419861  0.67713178  0.71226551     0.81900
N604        N  0.43002421  0.65819262  0.68669928    -0.78800
C605        C  0.45583895  0.64885750  0.66978739     0.82000
N606        N  0.48559821  0.65846130  0.67834159    -0.80500
C607        C  0.26355903  0.50296729  0.66830285     0.79500
N608        N  0.28807742  0.49996397  0.64770692    -0.78800
C609        C  0.30649235  0.52479289  0.64018904     0.81900
N610        N  0.30041989  0.55288495  0.65308390    -0.78800
C611        C  0.27588044  0.55623250  0.67367807     0.82000
N612        N  0.25768682  0.53109674  0.68139705    -0.80500
C613        C  0.48642557  0.34745569  0.70174880     0.79500
N614        N  0.48651327  0.36255711  0.67317849    -0.78800
C615        C  0.45984749  0.37767487  0.66239994     0.81900
N616        N  0.43277840  0.37726283  0.68046240    -0.78800
C617        C  0.43249183  0.36172241  0.70894648     0.82000
N618        N  0.45944992  0.34721430  0.71919836    -0.80500
C619        C  0.62382211  0.49603401  0.71181943     0.79500
N620        N  0.63800435  0.52183407  0.72405249    -0.78800
C621        C  0.63449570  0.54989081  0.70960057     0.81900
N622        N  0.61659814  0.55214235  0.68241533    -0.78800
C623        C  0.60188568  0.52646022  0.67033467     0.82000
N624        N  0.60581214  0.49857010  0.68495149    -0.80500
C625        C  0.49846250  0.37155076  0.29263093     0.79500
N626        N  0.46999948  0.36110576  0.28142829    -0.78800
C627        C  0.44232116  0.36714759  0.29647055     0.81900
N628        N  0.44311911  0.38397388  0.32388443    -0.78800
C629        C  0.47162761  0.39450208  0.33600254     0.82000
N630        N  0.49928447  0.38825332  0.32015739    -0.80500
C631        C  0.66243526  0.49958680  0.33905455     0.79500
N632        N  0.63680369  0.50301538  0.35838559    -0.78800
C633        C  0.62856616  0.53147064  0.36939588     0.81900
N634        N  0.64636898  0.55685501  0.36113050    -0.78800
C635        C  0.67212103  0.55383208  0.34162750     0.82000
N636        N  0.67978647  0.52514897  0.33064037    -0.80500
C637        C  0.49366773  0.73017131  0.35172485     0.79500
N638        N  0.46515434  0.74410106  0.34623281    -0.78800
C639        C  0.43753602  0.73161438  0.35710157     0.81900
N640        N  0.43848854  0.70419605  0.37366122    -0.78800
C641        C  0.46693149  0.68961807  0.37941836     0.82000
N642        N  0.49454780  0.70274977  0.36841631    -0.80500
C643        C  0.28325759  0.49596436  0.32298644     0.79500
N644        N  0.26418567  0.52039070  0.31559068    -0.78800
C645        C  0.26940211  0.54869022  0.32855199     0.81900
N646        N  0.29447403  0.55262114  0.34928391    -0.78800
C647        C  0.31400694  0.52813089  0.35655712     0.82000
N648        N  0.30814452  0.49997573  0.34346961    -0.80500
C649        C  0.63548116  0.71244219  0.48150951     0.79500
N650        N  0.61634457  0.68706246  0.48543381    -0.78800
C651        C  0.60267670  0.68089168  0.51380605     0.81900
N652        N  0.60806198  0.70049117  0.53855275    -0.78800
C653        C  0.62723098  0.72610830  0.53491356     0.82000
N654        N  0.64087693  0.73173000  0.50637614    -0.80500
C655        C  0.67512502  0.36132712  0.48310176     0.79500
N656        N  0.64768737  0.37864013  0.48276182    -0.78800
C657        C  0.63573484  0.39045551  0.51009602     0.81900
N658        N  0.65178863  0.38512778  0.53793915    -0.78800
C659        C  0.67932977  0.36790005  0.53856902     0.82000
N660        N  0.69048819  0.35599670  0.51108434    -0.80500
C661        C  0.26858482  0.68018999  0.48005391     0.79500
N662        N  0.25131326  0.68937927  0.50524457    -0.78800
C663        C  0.25825955  0.67902447  0.53484601     0.81900
N664        N  0.28335996  0.65904914  0.53929496    -0.78800
C665        C  0.30089701  0.64967700  0.51399098     0.82000
N666        N  0.29341139  0.66031394  0.48454530    -0.80500
C667        C  0.26214565  0.35631291  0.47394540     0.79500
N668        N  0.28997283  0.37324272  0.47247713    -0.78800
C669        C  0.30864553  0.37714391  0.49898746     0.81900
N670        N  0.29914829  0.36396069  0.52688529    -0.78800
C671        C  0.27125993  0.34727574  0.52840169     0.82000
N672        N  0.25323486  0.34369269  0.50193865    -0.80500
O673        O  0.88269094  0.96718735  0.99445196    -0.87200
O674        O  0.06456931  0.98216631  0.00481371    -0.87400
O675        O  0.97918528  0.94161654  0.94559492    -0.89000
O676        O  0.97394414  0.93031972  0.04774278    -0.87800
O677        O  0.96637882  0.96321879  0.08971441    -0.87400
O678        O  0.97896810  0.98330862  0.91119360    -0.88800
O679        O  0.02934706  0.94147239  0.99802067    -0.87200
O680        O  0.92463832  0.93263360  0.99373850    -0.86800
Zr681      Zr  0.97445030  0.96199191  0.99948646     2.84300
O682        O  0.00208962  0.99220191  0.03696543    -1.08800
O683        O  0.94149570  0.99426844  0.96824147    -1.09500
C684        C  0.89454711  0.93937969  0.99271545     1.05900
C685        C  0.05786004  0.95326630  0.99989309     1.05800
C686        C  0.98044999  0.95392660  0.91759113     1.08800
C687        C  0.97012224  0.93574399  0.07750741     1.06600
H688        H  0.02032805  0.98864636  0.96010356     0.32200
O689        O  0.00562274  0.99908219  0.97327900    -1.29800
H690        H  0.92427101  0.97306552  0.04243841     0.31800
O691        O  0.93740816  0.98799227  0.03157653    -1.31400
O692        O  0.05721984  0.08112957  0.01390476    -0.87200
O693        O  0.87389335  0.06923929  0.00102955    -0.88700
O694        O  0.02676412  0.03442671  0.91993539    -0.87300
O695        O  0.01646081  0.01392472  0.09833657    -0.87300
O696        O  0.91082601  0.01409315  0.09093007    -0.87000
O697        O  0.92366991  0.02556551  0.91110576    -0.86900
O698        O  0.96881309  0.11815304  0.95870661    -0.87200
O699        O  0.96055604  0.10783179  0.06626233    -0.86700
O700        O  0.97346723  0.08286584  0.91826984    -0.87800
O701        O  0.96161251  0.06564708  0.10036901    -0.86900
O702        O  0.06290054  0.03407592  0.96133881    -0.87300
O703        O  0.88244116  0.01859333  0.94608830    -0.87000
O704        O  0.87474166  0.01560764  0.04944341    -0.86700
O705        O  0.05700301  0.02183039  0.06275006    -0.87100
O706        O  0.01687834  0.11745445  0.01310106    -0.87400
O707        O  0.90889061  0.11029680  0.00762945    -0.88700
Zr708      Zr  0.03317749  0.02946664  0.01040839     2.83100
Zr709      Zr  0.90468984  0.02042098  0.99998965     2.83500
Zr710      Zr  0.97308659  0.03098242  0.94176932     2.84100
Zr711      Zr  0.96527732  0.01781198  0.06919604     2.83400
Zr712      Zr  0.96454678  0.08912722  0.01041985     2.84200
O713        O  0.93371365  0.05064723  0.03658213    -1.09300
O714        O  0.00070987  0.06172017  0.97880896    -1.08800
C715        C  0.04694127  0.10941227  0.01366604     1.05900
C716        C  0.88021820  0.09861773  0.00415872     1.08500
C717        C  0.05538323  0.03484840  0.93166579     1.06000
C718        C  0.04635583  0.01581333  0.09069938     1.06400
C719        C  0.88201387  0.01392712  0.07924954     1.06000
C720        C  0.89405688  0.02047184  0.91787609     1.05500
C721        C  0.97204346  0.11088118  0.92892445     1.06000
C722        C  0.96023167  0.09522348  0.09446831     1.05500
H723        H  0.92298069  0.07062776  0.95990686     0.32200
O724        O  0.93638739  0.05775693  0.97341484    -1.30400
H725        H  0.00869227  0.06785274  0.05781295     0.32200
O726        O  0.99667599  0.05569892  0.04254585    -1.31800
O727        O  0.45722889  0.60400093  0.56496653    -0.87200
O728        O  0.46759507  0.42725534  0.55389116    -0.87400
O729        O  0.41045267  0.51421366  0.59253334    -0.89000
O730        O  0.51429373  0.51813489  0.59908504    -0.87800
O731        O  0.55483890  0.52556824  0.56339724    -0.87400
O732        O  0.37381374  0.51463869  0.55158423    -0.88800
O733        O  0.46359608  0.46321966  0.59378209    -0.87200
O734        O  0.45831263  0.56265314  0.59977844    -0.86800
Zr735      Zr  0.46382040  0.51476475  0.56962486     2.84300
O736        O  0.49947122  0.48754836  0.53733281    -1.08800
O737        O  0.43096027  0.54638166  0.53818549    -1.09500
C738        C  0.45625292  0.59192174  0.59305868     1.05900
C739        C  0.46493707  0.43504160  0.58360050     1.05800
C740        C  0.38169410  0.51491030  0.58111939     1.08800
C741        C  0.54386182  0.52295987  0.59185677     1.06600
H742        H  0.42126832  0.46950987  0.54555414     0.32200
O743        O  0.43475799  0.48366733  0.53381361    -1.29800
H744        H  0.50692863  0.56401178  0.55713513     0.31800
O745        O  0.49523935  0.55115733  0.54231374    -1.31400
O746        O  0.47233436  0.43585560  0.44626452    -0.87200
O747        O  0.46233429  0.61455344  0.46292827    -0.88700
O748        O  0.37747817  0.46454597  0.49838881    -0.87300
O749        O  0.56123960  0.47537982  0.50944031    -0.87300
O750        O  0.55387671  0.57722904  0.51327344    -0.87000
O751        O  0.37168757  0.56348339  0.50839483    -0.86900
O752        O  0.41717290  0.52810520  0.41340872    -0.87200
O753        O  0.52327177  0.53105741  0.41915899    -0.86700
O754        O  0.37724182  0.52146401  0.44993413    -0.87800
O755        O  0.56006883  0.53000730  0.46004129    -0.86900
O756        O  0.41744943  0.42785155  0.49888780    -0.87300
O757        O  0.40717969  0.60399153  0.51473192    -0.87000
O758        O  0.51234036  0.61211119  0.51570220    -0.86700
O759        O  0.52569268  0.43448650  0.50489720    -0.87100
O760        O  0.47142147  0.47760123  0.41159489    -0.87400
O761        O  0.46926714  0.58099983  0.42134505    -0.88700
Zr762      Zr  0.47022350  0.45573923  0.50173350     2.83100
Zr763      Zr  0.46186030  0.58320796  0.51135972     2.83500
Zr764      Zr  0.40241805  0.51593631  0.50194447     2.84100
Zr765      Zr  0.53100098  0.52431599  0.50990558     2.83400
Zr766      Zr  0.46920465  0.52636709  0.44184770     2.84200
O767        O  0.49773734  0.55646283  0.47878122    -1.09300
O768        O  0.43835963  0.48923168  0.46980934    -1.08800
C769        C  0.47223957  0.44803230  0.41786900     1.05900
C770        C  0.46615330  0.60869055  0.43324865     1.08500
C771        C  0.38742499  0.43613460  0.49813208     1.06000
C772        C  0.55447673  0.44601668  0.50758672     1.06400
C773        C  0.54240966  0.60512544  0.51539405     1.06000
C774        C  0.37858185  0.59234227  0.51324282     1.05500
C775        C  0.38735731  0.52610920  0.42152590     1.06000
C776        C  0.55227818  0.53177962  0.43037187     1.05500
H777        H  0.41956532  0.56638402  0.46207130     0.32200
O778        O  0.43327363  0.55289321  0.47453110    -1.30400
H779        H  0.51607985  0.48246317  0.46074736     0.32200
O780        O  0.50129715  0.49338874  0.47411674    -1.31800
C781        C  0.33836548  0.39550947  0.49774724    -0.14000
C782        C  0.36217982  0.41227350  0.49749672    -0.15600
C783        C  0.32842119  0.62969957  0.51779394    -0.14000
C784        C  0.35181574  0.61315633  0.51690611    -0.15600
C785        C  0.60606694  0.40869874  0.50944637    -0.14000
C786        C  0.58180835  0.42464940  0.50858894    -0.15600
C787        C  0.58235904  0.65360955  0.51708359    -0.14000
C788        C  0.56486317  0.63094022  0.51717516    -0.15600
C789        C  0.34072456  0.53105701  0.37845736    -0.14000
C790        C  0.36290908  0.52960838  0.39719609    -0.15600
C791        C  0.46753529  0.65997336  0.39670542    -0.14000
C792        C  0.46710842  0.63575751  0.41207211    -0.15600
C793        C  0.57842457  0.53406049  0.40797689    -0.14000
C794        C  0.60115385  0.53421288  0.39015504    -0.15600
C795        C  0.47275960  0.42722034  0.39035030    -0.14000
C796        C  0.47251526  0.41193778  0.36589130    -0.15600
C797        C  0.58305253  0.52794996  0.64146243    -0.14000
C798        C  0.56614453  0.52617172  0.61804583    -0.15600
C799        C  0.46286527  0.41098550  0.60829617    -0.14000
C800        C  0.46087149  0.39483546  0.63222870    -0.15600
C801        C  0.35595370  0.51729719  0.60296170    -0.14000
C802        C  0.33337093  0.52083915  0.61996830    -0.15600
C803        C  0.45227254  0.62938427  0.64234859    -0.14000
C804        C  0.45300887  0.61276454  0.61938611    -0.15600
C805        C  0.67326025  0.77966535  0.59072618    -0.14100
C806        C  0.65522700  0.77662323  0.61842432     0.08100
C807        C  0.62547137  0.76120535  0.61681749    -0.14100
C808        C  0.61546646  0.74631601  0.58910333    -0.14100
C809        C  0.63487858  0.74668693  0.56220356     0.08100
C810        C  0.66304009  0.76498652  0.56271801    -0.14100
H811        H  0.69660161  0.79072475  0.59151650     0.12100
H812        H  0.61132322  0.75817428  0.63800942     0.12100
H813        H  0.59338935  0.73302234  0.58933363     0.12100
H814        H  0.67845258  0.76598488  0.54225561     0.12100
C815        C  0.68660241  0.62122109  0.70915083    -0.14100
C816        C  0.68737225  0.63011229  0.74126262     0.09500
C817        C  0.67318150  0.61032117  0.76377221    -0.14100
C818        C  0.65654300  0.58345277  0.75376169    -0.14100
C819        C  0.65325342  0.57676175  0.72119982     0.08100
C820        C  0.66920955  0.59540857  0.69921915    -0.14100
H821        H  0.69786281  0.63552067  0.69116617     0.12100
H822        H  0.67327563  0.61652568  0.78858943     0.12100
H823        H  0.64494274  0.56879809  0.77121791     0.12100
H824        H  0.66802064  0.59015136  0.67416823     0.12100
C825        C  0.57868837  0.69434694  0.70087801    -0.14100
C826        C  0.58228455  0.71581524  0.72567397     0.08100
C827        C  0.55553170  0.72345290  0.74389580    -0.14100
C828        C  0.52574438  0.71029125  0.73720219    -0.14100
C829        C  0.52198408  0.68932637  0.71202397     0.08100
C830        C  0.54882965  0.68120637  0.69414068    -0.14100
H831        H  0.59886476  0.68787042  0.68644201     0.12100
H832        H  0.55748858  0.73979095  0.76324659     0.12100
H833        H  0.50556845  0.71698977  0.75152605     0.12100
H834        H  0.54673976  0.66505940  0.67463966     0.12100
C835        C  0.73330604  0.32821975  0.60039949    -0.14100
C836        C  0.72451293  0.34354646  0.62819948     0.08100
C837        C  0.70396576  0.36950865  0.62547484    -0.14100
C838        C  0.69010215  0.37800796  0.59638359    -0.14100
C839        C  0.69684137  0.36120121  0.56891348     0.08100
C840        C  0.71975370  0.33708347  0.57102281    -0.14100
H841        H  0.74845288  0.30783421  0.60168337     0.12100
H842        H  0.69653795  0.38179432  0.64648834     0.12100
H843        H  0.67314465  0.39702208  0.59568378     0.12100
H844        H  0.72581921  0.32377677  0.55025378     0.12100
C845        C  0.54945774  0.31383541  0.75824472    -0.14100
C846        C  0.57126087  0.30107762  0.73693467     0.08100
C847        C  0.56353080  0.30185663  0.70423787    -0.14100
C848        C  0.53618474  0.31693840  0.69291531    -0.14100
C849        C  0.51511327  0.33087652  0.71397543     0.08100
C850        C  0.52141453  0.32836045  0.74683885    -0.14100
H851        H  0.55489983  0.31412783  0.78336759     0.12100
H852        H  0.57965257  0.29205825  0.68703966     0.12100
H853        H  0.53165067  0.31787645  0.66761461     0.12100
H854        H  0.50531743  0.33880285  0.76364789     0.12100
C855        C  0.66385004  0.43236316  0.75995041    -0.14100
C856        C  0.65320185  0.40569255  0.74390079     0.08100
C857        C  0.62946655  0.40877516  0.72023664    -0.14100
C858        C  0.61856451  0.43810573  0.71102491    -0.14100
C859        C  0.63109549  0.46499778  0.72532035     0.08100
C860        C  0.65297514  0.46177273  0.75066859    -0.14100
H861        H  0.68193327  0.43072169  0.77844546     0.12100
H862        H  0.62033400  0.38861536  0.70774871     0.12100
H863        H  0.60139589  0.43969494  0.69169429     0.12100
H864        H  0.66290128  0.48201777  0.76238487     0.12100
C865        C  0.22858081  0.69288728  0.61790778    -0.14100
C866        C  0.21491972  0.72275293  0.61497102     0.08100
C867        C  0.21134343  0.73596726  0.58477638    -0.14100
C868        C  0.22374410  0.72064678  0.55834749    -0.14100
C869        C  0.24035458  0.69216936  0.56184334     0.08100
C870        C  0.24140597  0.67786330  0.59171427    -0.14100
H871        H  0.23170262  0.68227172  0.64109616     0.12100
H872        H  0.20149232  0.75911832  0.58195669     0.12100
H873        H  0.22228043  0.73222951  0.53552019     0.12100
H874        H  0.25344806  0.65578741  0.59513382     0.12100
C875        C  0.34974471  0.68871151  0.74089422    -0.14100
C876        C  0.35206598  0.71785298  0.75578619     0.08100
C877        C  0.38229737  0.73135951  0.76030078    -0.14100
C878        C  0.40944219  0.71709656  0.74763489    -0.14100
C879        C  0.40655590  0.68939905  0.72996447     0.08100
C880        C  0.37663003  0.67473710  0.72788586    -0.14100
H881        H  0.32651902  0.67800174  0.73699506     0.12100
H882        H  0.38456883  0.75407372  0.77108581     0.12100
H883        H  0.43230862  0.72889211  0.74982314     0.12100
H884        H  0.37370729  0.65320034  0.71497127     0.12100
C885        C  0.24288848  0.59102676  0.70769811    -0.14100
C886        C  0.26897435  0.58697516  0.68734298     0.08100
C887        C  0.28797975  0.61282100  0.67936537    -0.14100
C888        C  0.28054731  0.64223695  0.69067233    -0.14100
C889        C  0.25407832  0.64646226  0.71044235     0.08100
C890        C  0.23552416  0.62051318  0.71916548    -0.14100
H891        H  0.22782083  0.57154722  0.71438469     0.12100
H892        H  0.30838593  0.61049415  0.66394948     0.12100
H893        H  0.29544058  0.66172737  0.68363090     0.12100
H894        H  0.21491181  0.62306216  0.73428789     0.12100
C895        C  0.21686843  0.31330647  0.59195741    -0.14100
C896        C  0.23887286  0.30792627  0.61662719     0.08100
C897        C  0.27174609  0.31293803  0.61091793    -0.14100
C898        C  0.28224096  0.32539244  0.58229854    -0.14100
C899        C  0.26023296  0.33261011  0.55826222     0.08100
C900        C  0.22752051  0.32543035  0.56289019    -0.14100
H901        H  0.19148447  0.30981117  0.59567769     0.12100
H902        H  0.28945835  0.30846580  0.62927039     0.12100
H903        H  0.30757431  0.32977164  0.57917177     0.12100
H904        H  0.20997484  0.33039454  0.54449937     0.12100
C905        C  0.21737662  0.44640086  0.71928059    -0.14100
C906        C  0.22143169  0.41887624  0.70216673     0.08100
C907        C  0.23488933  0.42022830  0.67183343    -0.14100
C908        C  0.24688188  0.44810995  0.66001662    -0.14100
C909        C  0.24545274  0.47521673  0.67823405     0.08100
C910        C  0.22935226  0.47450192  0.70734222    -0.14100
H911        H  0.20724381  0.44580597  0.74279590     0.12100
H912        H  0.23789841  0.39928642  0.65801741     0.12100
H913        H  0.25864002  0.44809209  0.63725973     0.12100
H914        H  0.22787798  0.49515261  0.72181089     0.12100
C915        C  0.34923568  0.37513025  0.74188187    -0.14100
C916        C  0.34530855  0.34930433  0.76247336     0.08100
C917        C  0.37155106  0.32960022  0.76763729    -0.14100
C918        C  0.40015262  0.33444362  0.75102475    -0.14100
C919        C  0.40307305  0.35884809  0.72856041     0.08100
C920        C  0.37753228  0.37962091  0.72488928    -0.14100
H921        H  0.32951263  0.39089350  0.73728208     0.12100
H922        H  0.36926795  0.30923774  0.78271931     0.12100
H923        H  0.41945798  0.31799655  0.75461827     0.12100
H924        H  0.37909053  0.39890160  0.70831083     0.12100
C925        C  0.07189340  0.13341419  0.01323670    -0.14000
C926        C  0.09571152  0.15002169  0.01193112    -0.15600
C927        C  0.15073807  0.22437554  0.92946066    -0.14100
C928        C  0.17301893  0.21607609  0.95293832     0.08100
C929        C  0.20524979  0.22551567  0.94914867    -0.14100
C930        C  0.21498078  0.24235784  0.92218555    -0.14100
C931        C  0.19256637  0.25062932  0.89865478     0.08100
C932        C  0.16027475  0.24157902  0.90296176    -0.14100
H933        H  0.12576642  0.21793069  0.93172689     0.12100
H934        H  0.22311753  0.21953536  0.96690814     0.12100
H935        H  0.23998016  0.24855245  0.91962016     0.12100
H936        H  0.14206754  0.24737368  0.88552009     0.12100
C937        C  0.65493547  0.70823224  0.39419790    -0.14100
C938        C  0.67629693  0.73332676  0.39052631     0.08100
C939        C  0.68527982  0.75063597  0.41733464    -0.14100
C940        C  0.67232231  0.74365447  0.44693724    -0.14100
C941        C  0.65025777  0.71908631  0.45042081     0.08100
C942        C  0.64209389  0.70118625  0.42378763    -0.14100
H943        H  0.64768335  0.69426559  0.37408894     0.12100
H944        H  0.70173473  0.77007679  0.41535509     0.12100
H945        H  0.67935744  0.75776405  0.46700832     0.12100
H946        H  0.62531535  0.68200672  0.42562163     0.12100
C947        C  0.58079566  0.74923526  0.33741318    -0.14100
C948        C  0.57941179  0.76819041  0.30999927     0.08100
C949        C  0.54935713  0.77719731  0.29815751    -0.14100
C950        C  0.52133704  0.76562605  0.31240539    -0.14100
C951        C  0.52304418  0.74460280  0.33836462     0.08100
C952        C  0.55309765  0.73730223  0.35114039    -0.14100
H953        H  0.60370589  0.74214535  0.34730089     0.12100
H954        H  0.54753541  0.79145897  0.27696850     0.12100
H955        H  0.49837569  0.77197126  0.30215897     0.12100
H956        H  0.55528596  0.72183986  0.37141030     0.12100
C957        C  0.69048547  0.60896524  0.34960002    -0.14100
C958        C  0.69124855  0.58159791  0.33172213     0.08100
C959        C  0.70922408  0.58160694  0.30353386    -0.14100
C960        C  0.72353677  0.60917080  0.29207764    -0.14100
C961        C  0.72056117  0.63703516  0.30891205     0.08100
C962        C  0.70514861  0.63616970  0.33848278    -0.14100
H963        H  0.67742563  0.60973522  0.37161836     0.12100
H964        H  0.71046644  0.56081277  0.28925944     0.12100
H965        H  0.73449909  0.60924944  0.26893895     0.12100
H966        H  0.70212386  0.65740508  0.35183749     0.12100
C967        C  0.72091107  0.30981361  0.42520107    -0.14100
C968        C  0.70992274  0.32146129  0.39595819     0.08100
C969        C  0.68962051  0.34772214  0.39592661    -0.14100
C970        C  0.67875355  0.36065720  0.42400547    -0.14100
C971        C  0.68831139  0.34825328  0.45330451     0.08100
C972        C  0.71030207  0.32323205  0.45366269    -0.14100
H973        H  0.73632829  0.28961422  0.42610483     0.12100
H974        H  0.68103585  0.35774257  0.37383648     0.12100
H975        H  0.66249403  0.38022502  0.42268051     0.12100
H976        H  0.71838502  0.31327243  0.47595644     0.12100
C977        C  0.70500268  0.43495188  0.29500648    -0.14100
C978        C  0.68844268  0.40829579  0.30545239     0.08100
C979        C  0.66352380  0.41198922  0.32731203    -0.14100
C980        C  0.65523193  0.44150333  0.33822449    -0.14100
C981        C  0.67154184  0.46820452  0.32754611     0.08100
C982        C  0.69665163  0.46453150  0.30589953    -0.14100
H983        H  0.72429773  0.43303059  0.27819311     0.12100
H984        H  0.65014691  0.39207286  0.33590263     0.12100
H985        H  0.63590909  0.44333842  0.35501382     0.12100
H986        H  0.70979913  0.48453793  0.29717534     0.12100
C987        C  0.58543309  0.36700570  0.26809461    -0.14100
C988        C  0.58540299  0.34025902  0.24882651     0.08100
C989        C  0.55601909  0.32684544  0.24031079    -0.14100
C990        C  0.52754559  0.33817091  0.25331946    -0.14100
C991        C  0.52803716  0.36287406  0.27535746     0.08100
C992        C  0.55716175  0.37800742  0.28142874    -0.14100
H993        H  0.60788343  0.37780513  0.27510776     0.12100
H994        H  0.55530479  0.30601195  0.22601511     0.12100
H995        H  0.50539176  0.32617146  0.24768426     0.12100
H996        H  0.55834645  0.39746044  0.29758087     0.12100
C997        C  0.26718316  0.69221842  0.39138433    -0.14100
C998        C  0.24515564  0.71678034  0.38805554     0.08100
C999        C  0.23149694  0.72954975  0.41523199    -0.14100
C1000       C  0.23934120  0.71772307  0.44508582    -0.14100
C1001       C  0.26096296  0.69286385  0.44837857     0.08100
C1002       C  0.27504689  0.68041178  0.42126361    -0.14100
H1003       H  0.27830797  0.68195056  0.37089711     0.12100
H1004       H  0.21474482  0.74868797  0.41349380     0.12100
H1005       H  0.22842224  0.72814072  0.46559678     0.12100
H1006       H  0.29188764  0.66135412  0.42305870     0.12100
C1007       C  0.22937232  0.62733030  0.32662640    -0.14100
C1008       C  0.21640471  0.62814943  0.29568666     0.08100
C1009       C  0.21685464  0.60110695  0.27745229    -0.14100
C1010       C  0.23251451  0.57448742  0.28906425    -0.14100
C1011       C  0.24852584  0.57490355  0.31871387     0.08100
C1012       C  0.24558035  0.60112183  0.33790632    -0.14100
H1013       H  0.22967026  0.64818294  0.34094325     0.12100
H1014       H  0.20780167  0.60143784  0.25331965     0.12100
H1015       H  0.23411383  0.55439450  0.27381973     0.12100
H1016       H  0.25704667  0.60191726  0.36101450     0.12100
C1017       C  0.37668306  0.78043903  0.31167009    -0.14100
C1018       C  0.34789987  0.76766873  0.32248363     0.08100
C1019       C  0.34872716  0.74653319  0.34819921    -0.14100
C1020       C  0.37780824  0.73605028  0.36080350    -0.14100
C1021       C  0.40675377  0.74659814  0.34806752     0.08100
C1022       C  0.40588812  0.77005840  0.32443548    -0.14100
H1023       H  0.37674451  0.79650943  0.29179216     0.12100
H1024       H  0.32674782  0.73652537  0.35723728     0.12100
H1025       H  0.37756494  0.71855767  0.37939588     0.12100
H1026       H  0.42780110  0.77902631  0.31429583     0.12100
C1027       C  0.09239082  0.00781841  0.13366892    -0.14000
C1028       C  0.07028152  0.01060899  0.11508692    -0.15600
C1029       C  0.18746045  0.93512608  0.16805835    -0.14100
C1030       C  0.18416215  0.95955766  0.18956453     0.08100
C1031       C  0.19957309  0.95733941  0.21937515    -0.14100
C1032       C  0.21552784  0.92999636  0.22853240    -0.14100
C1033       C  0.21669042  0.90476962  0.20777767     0.08100
C1034       C  0.20393572  0.90820269  0.17694672    -0.14100
H1035       H  0.17634480  0.93636645  0.14479217     0.12100
H1036       H  0.19746346  0.97593477  0.23640579     0.12100
H1037       H  0.22433440  0.92757925  0.25264047     0.12100
H1038       H  0.20424770  0.88881421  0.16066546     0.12100
C1039       C  0.22987481  0.35730821  0.38969402    -0.14100
C1040       C  0.21157008  0.32961238  0.38888028     0.08100
C1041       C  0.20601904  0.31366215  0.41729714    -0.14100
C1042       C  0.22106550  0.32358015  0.44535786    -0.14100
C1043       C  0.24232264  0.34931453  0.44535648     0.08100
C1044       C  0.24540981  0.36683646  0.41748754    -0.14100
H1045       H  0.23473813  0.36994992  0.36794425     0.12100
H1046       H  0.19267986  0.29199608  0.41728495     0.12100
H1047       H  0.21781487  0.30966958  0.46657377     0.12100
H1048       H  0.26098798  0.38702894  0.41676880     0.12100
C1049       C  0.38253731  0.36753526  0.28976199    -0.14100
C1050       C  0.41214293  0.35410763  0.28306135     0.08100
C1051       C  0.41288295  0.32776252  0.26314019    -0.14100
C1052       C  0.38446721  0.31397422  0.25190133    -0.14100
C1053       C  0.35488035  0.32655260  0.26012025     0.08100
C1054       C  0.35432323  0.35407388  0.27817316    -0.14100
H1055       H  0.38113260  0.38810461  0.30436897     0.12100
H1056       H  0.43543761  0.31692956  0.25736289     0.12100
H1057       H  0.38557811  0.29258367  0.23853909     0.12100
H1058       H  0.33170656  0.36434442  0.28466199     0.12100
C1059       C  0.24372609  0.43198120  0.27568144    -0.14100
C1060       C  0.25874294  0.40549194  0.28847377     0.08100
C1061       C  0.28307173  0.40917992  0.31141186    -0.14100
C1062       C  0.29174033  0.43866409  0.32186052    -0.14100
C1063       C  0.27601888  0.46507045  0.30987768     0.08100
C1064       C  0.25221564  0.46151896  0.28637518    -0.14100
H1065       H  0.22493452  0.42989676  0.25794771     0.12100
H1066       H  0.29506760  0.38925240  0.32186518     0.12100
H1067       H  0.31014415  0.44063397  0.33999281     0.12100
H1068       H  0.23977068  0.48150187  0.27655630     0.12100
C1069       C  0.20564766  0.18027788  0.11959469    -0.14100
C1070       C  0.22446864  0.20757060  0.12195624     0.08100
C1071       C  0.23029131  0.22489296  0.09439382    -0.14100
C1072       C  0.21488594  0.21690158  0.06586809    -0.14100
C1073       C  0.19311863  0.19165668  0.06449070     0.08100
C1074       C  0.18977786  0.17267186  0.09136044    -0.14100
H1075       H  0.20068380  0.16642816  0.14055119     0.12100
H1076       H  0.24412929  0.24623029  0.09553481     0.12100
H1077       H  0.21830568  0.23190304  0.04546132     0.12100
H1078       H  0.17376919  0.15278678  0.09101684     0.12100
C1079       C  0.19438291  0.10395421  0.23442682    -0.14100
C1080       C  0.17818933  0.13050656  0.22312624     0.08100
C1081       C  0.15260794  0.12672817  0.20161340    -0.14100
C1082       C  0.14388570  0.09729329  0.19102226    -0.14100
C1083       C  0.16063410  0.07080989  0.20145346     0.08100
C1084       C  0.18574293  0.07435455  0.22360324    -0.14100
H1085       H  0.21412893  0.10607154  0.25110450     0.12100
H1086       H  0.13953258  0.14659372  0.19241600     0.12100
H1087       H  0.12437142  0.09546630  0.17405026     0.12100
H1088       H  0.19898554  0.05435465  0.23226330     0.12100
C1089       C  0.95883383  0.11548384  0.12225424    -0.14000
C1090       C  0.95874945  0.13019606  0.14701100    -0.15600
C1091       C  0.90540134  0.20283116  0.26102829    -0.14100
C1092       C  0.90446210  0.17843559  0.23866980     0.08100
C1093       C  0.87502101  0.16389448  0.23241883    -0.14100
C1094       C  0.84696836  0.17511957  0.24607504    -0.14100
C1095       C  0.84751738  0.20148571  0.26587281     0.08100
C1096       C  0.87717311  0.21436081  0.27436074    -0.14100
H1097       H  0.92774233  0.21448438  0.26668782     0.12100
H1098       H  0.87341176  0.14479851  0.21585862     0.12100
H1099       H  0.82429521  0.16488856  0.23889517     0.12100
H1100       H  0.87829903  0.23502326  0.28888994     0.12100
C1101       C  0.04967277  0.17541620  0.21960351    -0.14100
C1102       C  0.02032840  0.18838990  0.22798151     0.08100
C1103       C  0.02030754  0.21479213  0.24784683    -0.14100
C1104       C  0.04916352  0.22881176  0.25774533    -0.14100
C1105       C  0.07842165  0.21639174  0.24815560     0.08100
C1106       C  0.07825685  0.18906949  0.22978047    -0.14100
H1107       H  0.05057768  0.15489759  0.20487759     0.12100
H1108       H  0.99794700  0.22533156  0.25476307     0.12100
H1109       H  0.04857413  0.24999498  0.27147874     0.12100
H1110       H  0.10054565  0.17877047  0.22228521     0.12100
C1111       C  0.72617359  0.96333484  0.20656001    -0.14100
C1112       C  0.74289995  0.96428523  0.17764158     0.08100
C1113       C  0.74172283  0.93799994  0.15814428    -0.14100
C1114       C  0.72662553  0.91067678  0.16842212    -0.14100
C1115       C  0.71260880  0.90873673  0.19860417     0.08100
C1116       C  0.71136445  0.93570379  0.21706653    -0.14100
H1117       H  0.72639854  0.98329344  0.22208435     0.12100
H1118       H  0.75373375  0.93806917  0.13552410     0.12100
H1119       H  0.72834654  0.89006638  0.15387449     0.12100
H1120       H  0.70151835  0.93468354  0.24068858     0.12100
C1121       C  0.77520947  0.13240242  0.18996156    -0.14100
C1122       C  0.74941846  0.13574798  0.21090331     0.08100
C1123       C  0.73216439  0.10903684  0.21991052    -0.14100
C1124       C  0.74046494  0.07975059  0.20825249    -0.14100
C1125       C  0.76624453  0.07643560  0.18730471     0.08100
C1126       C  0.78354152  0.10315661  0.17838879    -0.14100
H1127       H  0.78906512  0.15242517  0.18240559     0.12100
H1128       H  0.71208902  0.11074326  0.23583606     0.12100
H1129       H  0.72650998  0.05972003  0.21557464     0.12100
H1130       H  0.80344653  0.10158322  0.16224366     0.12100
C1131       C  0.83298755  0.01193253  0.11932158    -0.14000
C1132       C  0.85554681  0.01208642  0.10129666    -0.15600
C1133       C  0.05426422  0.79880585  0.14385364    -0.14100
C1134       C  0.02543784  0.79254083  0.15929578     0.08100
C1135       C  0.02536326  0.77055061  0.18437661    -0.14100
C1136       C  0.05402124  0.75741942  0.19566696    -0.14100
C1137       C  0.08310610  0.76578375  0.18177298     0.08100
C1138       C  0.08272193  0.78537817  0.15482213    -0.14100
H1139       H  0.05504023  0.81501848  0.12411691     0.12100
H1140       H  0.00341283  0.76496013  0.19664832     0.12100
H1141       H  0.05370777  0.74291263  0.21674837     0.12100
H1142       H  0.10496646  0.79223483  0.14369856     0.12100
C1143       C  0.88126925  0.76577290  0.20398517    -0.14100
C1144       C  0.85179758  0.77477195  0.19090177     0.08100
C1145       C  0.85150613  0.79381987  0.16351993    -0.14100
C1146       C  0.87987757  0.80573748  0.15099092    -0.14100
C1147       C  0.90931342  0.79839495  0.16521380     0.08100
C1148       C  0.90981903  0.77737117  0.19112734    -0.14100
H1149       H  0.88216993  0.75163814  0.22531153     0.12100
H1150       H  0.82899223  0.80102684  0.15289217     0.12100
H1151       H  0.87871211  0.82123631  0.13066742     0.12100
H1152       H  0.93225355  0.77108988  0.20251376     0.12100
C1153       C  0.96972189  0.90835369  0.09828852    -0.14000
C1154       C  0.96929720  0.88367903  0.11289094    -0.15600
C1155       C  0.19690311  0.97533858  0.79876180    -0.14100
C1156       C  0.16953209  0.97769411  0.81779010     0.08100
C1157       C  0.15028656  0.95126305  0.82238021    -0.14100
C1158       C  0.15852096  0.92297569  0.80906442    -0.14100
C1159       C  0.18623899  0.92023773  0.79066193     0.08100
C1160       C  0.20519792  0.94680109  0.78528758    -0.14100
H1161       H  0.21220980  0.99534586  0.79475246     0.12100
H1162       H  0.12890935  0.95221265  0.83664464     0.12100
H1163       H  0.14319434  0.90309290  0.81363314     0.12100
H1164       H  0.22673031  0.94539562  0.77129328     0.12100
C1165       C  0.20397677  0.09331198  0.80743697    -0.14100
C1166       C  0.18663822  0.08987861  0.83558469     0.08100
C1167       C  0.18235612  0.11578678  0.85516727    -0.14100
C1168       C  0.19308044  0.14500895  0.84567530    -0.14100
C1169       C  0.20830689  0.14888258  0.81640798     0.08100
C1170       C  0.21476379  0.12265961  0.79790501    -0.14100
H1171       H  0.20763376  0.07370853  0.79191483     0.12100
H1172       H  0.16952345  0.11376390  0.87726040     0.12100
H1173       H  0.18811960  0.16479705  0.86061321     0.12100
H1174       H  0.22635243  0.12506665  0.77517695     0.12100
C1175       C  0.08121061  0.03528634  0.90974572    -0.14000
C1176       C  0.10304254  0.03461781  0.89143546    -0.15600
C1177       C  0.88352427  0.81701566  0.76835958    -0.14100
C1178       C  0.85617328  0.82523113  0.78537312     0.08100
C1179       C  0.85905799  0.84682848  0.81015442    -0.14100
C1180       C  0.88869477  0.85998969  0.81766515    -0.14100
C1181       C  0.91599936  0.85187619  0.80050473     0.08100
C1182       C  0.91311522  0.83020721  0.77583419    -0.14100
H1183       H  0.88211009  0.80047881  0.74914604     0.12100
H1184       H  0.83840162  0.85374643  0.82369572     0.12100
H1185       H  0.89011305  0.87672757  0.83669383     0.12100
H1186       H  0.93372571  0.82340250  0.76217889     0.12100
C1187       C  0.05746879  0.88326827  0.77606577    -0.14100
C1188       C  0.02858768  0.86682393  0.77340326     0.08100
C1189       C  0.02694531  0.84108172  0.75275648    -0.14100
C1190       C  0.05466209  0.82972801  0.73835176    -0.14100
C1191       C  0.08413850  0.84432606  0.74405583     0.08100
C1192       C  0.08484559  0.87230427  0.76125952    -0.14100
H1193       H  0.05942992  0.90350392  0.79113095     0.12100
H1194       H  0.00482771  0.82816542  0.74974173     0.12100
H1195       H  0.05356558  0.80801613  0.72549471     0.12100
H1196       H  0.10742522  0.88400609  0.76590484     0.12100
C1197       C  0.98361740  0.91695351  0.86770866    -0.14000
C1198       C  0.98328261  0.93327543  0.89095960    -0.15600
C1199       C  0.91848869  0.24109417  0.78095571    -0.14100
C1200       C  0.91930995  0.21352866  0.79944906     0.08100
C1201       C  0.89093268  0.19685092  0.80381861    -0.14100
C1202       C  0.86224250  0.20774505  0.79105047    -0.14100
C1203       C  0.86064221  0.23621519  0.77423156     0.08100
C1204       C  0.88924133  0.25256105  0.76861836    -0.14100
H1205       H  0.94027027  0.25422621  0.77692341     0.12100
H1206       H  0.89088404  0.17518386  0.81709899     0.12100
H1207       H  0.84077389  0.19418603  0.79538272     0.12100
H1208       H  0.88881122  0.27459150  0.75601276     0.12100
C1209       C  0.06252660  0.17956533  0.79569668    -0.14100
C1210       C  0.03461688  0.19644195  0.78886484     0.08100
C1211       C  0.03549540  0.21863395  0.76397377    -0.14100
C1212       C  0.06416391  0.22554928  0.74819034    -0.14100
C1213       C  0.09257307  0.21015578  0.75664562     0.08100
C1214       C  0.09095734  0.18609644  0.77960919    -0.14100
H1215       H  0.06270221  0.16192035  0.81413737     0.12100
H1216       H  0.01432590  0.23185014  0.75764469     0.12100
H1217       H  0.06448490  0.24429194  0.73091344     0.12100
H1218       H  0.11232020  0.17350766  0.78669275     0.12100
C1219       C  0.97628036  0.15258548  0.88149091    -0.14000
C1220       C  0.97435643  0.13547612  0.90475275    -0.15600
C1221       C  0.76158129  0.96560851  0.76671662    -0.14100
C1222       C  0.79103697  0.96497366  0.78348094     0.08100
C1223       C  0.80811984  0.93705059  0.78522402    -0.14100
C1224       C  0.79504883  0.90992982  0.77261694    -0.14100
C1225       C  0.76436530  0.90988553  0.75843888     0.08100
C1226       C  0.74816844  0.93812384  0.75445497    -0.14100
H1227       H  0.74797079  0.98695437  0.76478858     0.12100
H1228       H  0.83106518  0.93588278  0.79736506     0.12100
H1229       H  0.80807074  0.88834182  0.77584027     0.12100
H1230       H  0.72438006  0.93858278  0.74402266     0.12100
C1231       C  0.78461465  0.13289125  0.81129292    -0.14100
C1232       C  0.76617122  0.13750280  0.78367844     0.08100
C1233       C  0.75938084  0.11203348  0.76399477    -0.14100
C1234       C  0.77084909  0.08247678  0.77189278    -0.14100
C1235       C  0.78928166  0.07798685  0.79956505     0.08100
C1236       C  0.79605908  0.10351024  0.81910626    -0.14100
H1237       H  0.79019677  0.15196829  0.82707938     0.12100
H1238       H  0.74524950  0.11490253  0.74252940     0.12100
H1239       H  0.76533622  0.06322197  0.75632056     0.12100
H1240       H  0.81008023  0.10085018  0.84066232     0.12100
C1241       C  0.85448920  0.01374606  0.86893831    -0.14000
C1242       C  0.87226837  0.01621163  0.89157033    -0.15600
C1243       C  0.16337644  0.85990152  0.08266278    -0.14100
C1244       C  0.17681575  0.84847546  0.05477285     0.08100
C1245       C  0.19781349  0.82301434  0.05645807    -0.14100
C1246       C  0.20496382  0.80901012  0.08559287    -0.14100
C1247       C  0.19122494  0.82028723  0.11344271     0.08100
C1248       C  0.17047317  0.84597073  0.11165354    -0.14100
H1249       H  0.14737956  0.87969479  0.08216992     0.12100
H1250       H  0.20842551  0.81367700  0.03525451     0.12100
H1251       H  0.22097719  0.78924105  0.08625939     0.12100
H1252       H  0.15963429  0.85544740  0.13268577     0.12100
C1253       C  0.23058114  0.82495472  0.91302548    -0.14100
C1254       C  0.22289570  0.83981087  0.88433044     0.08100
C1255       C  0.20525828  0.86768237  0.88487502    -0.14100
C1256       C  0.19240468  0.87859973  0.91296599    -0.14100
C1257       C  0.19717474  0.86209727  0.94130946     0.08100
C1258       C  0.21789715  0.83614234  0.94143302    -0.14100
H1259       H  0.24391508  0.80337506  0.91318938     0.12100
H1260       H  0.19918975  0.87973210  0.86299130     0.12100
H1261       H  0.17728903  0.89902692  0.91211390     0.12100
H1262       H  0.22251061  0.82317548  0.96307443     0.12100
C1263       C  0.08462397  0.93269878  0.99546856    -0.14000
C1264       C  0.10775650  0.91611588  0.99266002    -0.15600
C1265       C  0.75285750  0.18304857  0.08966987    -0.14100
C1266       C  0.74602613  0.19675458  0.06025888     0.08100
C1267       C  0.72620819  0.22346130  0.05939893    -0.14100
C1268       C  0.71530129  0.23723841  0.08757753    -0.14100
C1269       C  0.72369515  0.22421927  0.11706877     0.08100
C1270       C  0.74159497  0.19634509  0.11749552    -0.14100
H1271       H  0.76720744  0.16213219  0.09125272     0.12100
H1272       H  0.72015636  0.23441306  0.03695911     0.12100
H1273       H  0.70180925  0.25869498  0.08633745     0.12100
H1274       H  0.74809577  0.18532820  0.13980390     0.12100
C1275       C  0.74019357  0.16531962  0.91807597    -0.14100
C1276       C  0.73540270  0.18269205  0.94561295     0.08100
C1277       C  0.71320301  0.20747584  0.94429773    -0.14100
C1278       C  0.69895096  0.21672938  0.91546591    -0.14100
C1279       C  0.70644413  0.20125891  0.88742337     0.08100
C1280       C  0.72568398  0.17435734  0.88940350    -0.14100
H1281       H  0.75631306  0.14562947  0.91833421     0.12100
H1282       H  0.70842861  0.22113069  0.96517651     0.12100
H1283       H  0.68469842  0.23774358  0.91465045     0.12100
H1284       H  0.73192846  0.16198227  0.86805819     0.12100
C1285       C  0.82798594  0.13550748  0.00339270    -0.14000
C1286       C  0.85250683  0.11976825  0.00373630    -0.15600
C1287       C  0.79650159  0.84101322  0.08198273    -0.14100
C1288       C  0.79030135  0.82203405  0.05563540     0.08100
C1289       C  0.76992632  0.79614059  0.05921410    -0.14100
C1290       C  0.75608194  0.78939161  0.08845422    -0.14100
C1291       C  0.76236025  0.80832460  0.11479915     0.08100
C1292       C  0.78267209  0.83427431  0.11119433    -0.14100
H1293       H  0.81215096  0.86107621  0.08013449     0.12100
H1294       H  0.76466728  0.78098129  0.03943766     0.12100
H1295       H  0.74076325  0.76910092  0.09047260     0.12100
H1296       H  0.78815272  0.84931870  0.13101971     0.12100
C1297       C  0.82438949  0.79686595  0.91628541    -0.14100
C1298       C  0.80508451  0.79647396  0.94328249     0.08100
C1299       C  0.77685707  0.77828713  0.94277651    -0.14100
C1300       C  0.76656174  0.76356612  0.91483366    -0.14100
C1301       C  0.78452779  0.76642834  0.88708224     0.08100
C1302       C  0.81427663  0.78191966  0.88857062    -0.14100
H1303       H  0.84648848  0.81012591  0.91602819     0.12100
H1304       H  0.76145841  0.77735099  0.96325110     0.12100
H1305       H  0.74317782  0.75258764  0.91413253     0.12100
H1306       H  0.82834803  0.78490311  0.86732294     0.12100
C1307       C  0.85600737  0.88998808  0.98958827    -0.14000
C1308       C  0.87262833  0.91324967  0.99004701    -0.15600
loop_ 
_geom_bond_atom_site_label_1 
_geom_bond_atom_site_label_2 
_geom_bond_distance 
_geom_bond_site_symmetry_2 
_ccdc_geom_bond_type 
C1            N2   1.359       .  A
C1            N6   1.358   1_554  A
C1         C1288   1.481       .  S
N2            C3   1.356   1_554  A
C3            N4   1.364       .  A
C3         C1307   1.450       .  S
N4            C5   1.368       .  A
C5            N6   1.358       .  A
C5         C1298   1.490       .  S
C7            N8   1.370       .  A
C7           N12   1.354       .  A
C7         C1266   1.493       .  S
N8            C9   1.368       .  A
C9           N10   1.369   1_554  A
C9         C1285   1.475       .  S
N10          C11   1.371       .  A
C11          N12   1.356   1_556  A
C11        C1276   1.495       .  S
C13          N14   1.355       .  A
C13          N18   1.355   1_554  A
C13        C1244   1.470       .  S
N14          C15   1.351   1_554  A
C15          N16   1.361       .  A
C15        C1264   1.441       .  S
N16          C17   1.367       .  A
C17          N18   1.356       .  A
C17        C1257   1.483       .  S
C19          N20   1.355       .  A
C19          N24   1.356       .  A
C19        C1235   1.472       .  S
N20          C21   1.350       .  A
C21          N22   1.361   1_545  A
C21        C1241   1.440       .  S
N22          C23   1.367       .  A
C23          N24   1.357   1_565  A
C23        C1222   1.481       .  S
C25          N26   1.353       .  A
C25          N30   1.366       .  A
C25        C1200   1.483       .  S
N26          C27   1.357   1_655  A
C27          N28   1.372       .  A
C27        C1210   1.495       .  S
N28          C29   1.368   1_455  A
C29          N30   1.362       .  A
C29        C1219   1.469       .  S
C31          N32   1.357       .  A
C31          N36   1.354       .  A
C31        C1181   1.474       .  S
N32          C33   1.355       .  A
C33          N34   1.362   1_655  A
C33        C1197   1.443       .  S
N34          C35   1.366       .  A
C35          N36   1.354   1_455  A
C35        C1188   1.483       .  S
C37          N38   1.356       .  A
C37          N42   1.359       .  A
C37        C1166   1.471       .  S
N38          C39   1.349       .  A
C39          N40   1.352       .  A
C39        C1176   1.428       .  S
N40          C41   1.360       .  A
C41          N42   1.359       .  A
C41        C1156   1.478   1_545  S
C43          N44   1.351       .  A
C43          N48   1.367       .  A
C43        C1147   1.484       .  S
N44          C45   1.351       .  A
C45          N46   1.368       .  A
C45        C1134   1.485   1_655  S
N46          C47   1.366       .  A
C47          N48   1.366       .  A
C47        C1154   1.464       .  S
C49          N50   1.360       .  A
C49          N54   1.361       .  A
C49        C1125   1.487       .  S
N50          C51   1.359   1_545  A
C51          N52   1.368       .  A
C51        C1112   1.492       .  S
N52          C53   1.364   1_565  A
C53          N54   1.358       .  A
C53        C1131   1.454       .  S
C55          N56   1.354       .  A
C55          N60   1.370       .  A
C55        C1092   1.492       .  S
N56          C57   1.352       .  A
C57          N58   1.367       .  A
C57        C1102   1.485   1_655  S
N58          C59   1.365       .  A
C59          N60   1.368       .  A
C59        C1090   1.468       .  S
Zr61         O62   2.440       .  S
Zr61         O63   2.398       .  S
Zr61         O64   2.364       .  S
Zr61         O67   2.360       .  S
Zr61         O69   2.369       .  S
Zr61         O70   2.375       .  S
Zr61         O71   2.383       .  S
Zr61         O72   2.383       .  S
O62         H118   0.990       .  S
O62         H126   0.990       .  S
O63          C83   1.279       .  A
O64          C85   1.273       .  A
O65         Zr75   2.501       .  S
O65          C84   1.297       .  A
O66         Zr74   2.497       .  S
O66          C85   1.296       .  A
O67          C84   1.273       .  A
O68         Zr76   2.426       .  S
O68          C83   1.283       .  A
O69         Zr74   2.383       .  S
O69         Zr76   2.371       .  S
O70         Zr75   2.387       .  S
O70         Zr76   2.370       .  S
O70         H105   0.966       .  S
O71         Zr74   2.409       .  S
O71         Zr91   2.400       .  S
O71         H108   0.966       .  S
O72         Zr75   2.409       .  S
O72         Zr91   2.400       .  S
Zr73         O98   2.440       .  S
Zr73         O92   2.409       .  S
Zr73        O100   2.364       .  S
Zr73         O88   2.364       .  S
Zr73         O79   2.388       .  S
Zr73         O80   2.391       .  S
Zr73         O81   2.367       .  S
Zr73         O82   2.369       .  S
Zr74         O93   2.434       .  S
Zr74         O86   2.434       .  S
Zr74         O87   2.496       .  S
Zr74         O80   2.405       .  S
Zr74         O81   2.395       .  S
Zr75         O77   2.432       .  S
Zr75         O99   2.436       .  S
Zr75        O101   2.496       .  S
Zr75         O79   2.403       .  S
Zr75         O82   2.396       .  S
Zr76        O102   2.435       .  S
Zr76        O103   2.435       .  S
Zr76         O78   2.437       .  S
Zr76         O79   2.399       .  S
Zr76         O80   2.398       .  S
O77         H114   0.990       .  S
O78         H109   0.991       .  S
O78         H123   0.990       .  S
O80         H106   0.966       .  S
O81         Zr91   2.376       .  S
O82         Zr91   2.374       .  S
O82         H107   0.965       .  S
C83        C1060   1.472       .  S
C84        C1040   1.477       .  S
C85        C1053   1.479       .  S
O86         H122   0.990       .  S
O87          C89   1.296       .  A
O88          C89   1.272       .  A
C89        C1070   1.481       .  S
O90         Zr91   2.437       .  S
O90         H119   0.990       .  S
Zr91         O94   2.435       .  S
Zr91         O95   2.439       .  S
Zr91         O96   2.428       .  S
O92          C97   1.280       .  A
O93         H110   0.990       .  S
O93         H125   0.990       .  S
O94         H111   0.990       .  S
O95         H115   0.990       .  S
O95         H124   0.989       .  S
O96          C97   1.283       .  A
C97        C1080   1.479       .  S
O98         H117   0.990       .  S
O98         H121   0.990       .  S
O99         H113   0.990       .  S
O99         H120   0.990       .  S
O100        C104   1.274       .  A
O101        C104   1.296       .  A
O102        H112   0.990       .  S
O103        H116   0.990       .  S
C104       C1105   1.480       .  S
C127        N128   1.356       .  A
C127        N132   1.357       .  A
C127       C1083   1.478       .  S
N128        C129   1.352       .  A
C129        N130   1.362   1_545  A
C129       C1027   1.444       .  S
N130        C131   1.367       .  A
C131        N132   1.358   1_565  A
C131       C1030   1.481       .  S
Zr133       O134   2.437       .  S
Zr133       O135   2.397       .  S
Zr133       O136   2.378       .  S
Zr133       O139   2.361       .  S
Zr133       O141   2.365       .  S
Zr133       O142   2.375       .  S
Zr133       O143   2.382       .  S
Zr133       O144   2.387       .  S
O134        H190   0.990       .  S
O134        H198   0.990       .  S
O135        C155   1.278       .  A
O136        C157   1.275       .  A
O137       Zr147   2.488       .  S
O137        C156   1.294       .  A
O138       Zr146   2.481       .  S
O138        C157   1.293       .  A
O139        C156   1.273       .  A
O140       Zr148   2.428       .  S
O140        C155   1.284       .  A
O141       Zr146   2.388       .  S
O141       Zr148   2.374       .  S
O142       Zr147   2.389       .  S
O142       Zr148   2.368       .  S
O142        H177   0.965       .  S
O143       Zr146   2.404       .  S
O143       Zr163   2.400       .  S
O143        H180   0.966       .  S
O144       Zr147   2.405       .  S
O144       Zr163   2.403       .  S
Zr145       O170   2.437       .  S
Zr145       O164   2.387       .  S
Zr145       O172   2.369       .  S
Zr145       O160   2.367       .  S
Zr145       O151   2.382       .  S
Zr145       O152   2.383       .  S
Zr145       O153   2.366       .  S
Zr145       O154   2.374       .  S
Zr146       O165   2.437       .  S
Zr146       O158   2.434       .  S
Zr146       O159   2.479       .  S
Zr146       O152   2.407       .  S
Zr146       O153   2.389       .  S
Zr147       O149   2.434       .  S
Zr147       O171   2.435       .  S
Zr147       O173   2.490       .  S
Zr147       O151   2.405       .  S
Zr147       O154   2.391       .  S
Zr148       O174   2.436       .  S
Zr148       O175   2.437       .  S
Zr148       O150   2.436       .  S
Zr148       O151   2.399       .  S
Zr148       O152   2.394       .  S
O149        H186   0.990       .  S
O150        H181   0.990       .  S
O150        H195   0.990       .  S
O152        H178   0.966       .  S
O153       Zr163   2.369       .  S
O154       Zr163   2.373       .  S
O154        H179   0.966       .  S
C155        C998   1.473       .  S
C156       C1008   1.468       .  S
C157       C1018   1.478       .  S
O158        H194   0.990       .  S
O159        C161   1.293       .  A
O160        C161   1.274       .  A
C161       C1033   1.470       .  S
O162       Zr163   2.436       .  S
O162        H191   0.990       .  S
Zr163       O166   2.435       .  S
Zr163       O167   2.438       .  S
Zr163       O168   2.436       .  S
O164        C169   1.277       .  A
O165        H182   0.990       .  S
O165        H197   0.990       .  S
O166        H183   0.990       .  S
O167        H187   0.990       .  S
O167        H196   0.990       .  S
O168        C169   1.284       .  A
C169       C1247   1.472       .  S
O170        H189   0.990       .  S
O170        H193   0.990       .  S
O171        H185   0.990       .  S
O171        H192   0.990       .  S
O172        C176   1.274       .  A
O173        C176   1.295       .  A
O174        H184   0.990       .  S
O175        H188   0.990       .  S
C176       C1137   1.476       .  S
Zr199       O200   2.437       .  S
Zr199       O201   2.411       .  S
Zr199       O202   2.366       .  S
Zr199       O205   2.375       .  S
Zr199       O207   2.374       .  S
Zr199       O208   2.370       .  S
Zr199       O209   2.395       .  S
Zr199       O210   2.386       .  S
O200        H256   0.991       .  S
O200        H264   0.990       .  S
O201        C221   1.281       .  A
O202        C223   1.273       .  A
O203       Zr213   2.516       .  S
O203        C222   1.300       .  A
O204       Zr212   2.505       .  S
O204        C223   1.298       .  A
O205        C222   1.275       .  A
O206       Zr214   2.446       .  S
O206        C221   1.287       .  A
O207       Zr212   2.398       .  S
O207       Zr214   2.369       .  S
O208       Zr213   2.393       .  S
O208       Zr214   2.368       .  S
O208        H243   0.965       .  S
O209       Zr212   2.412       .  S
O209       Zr229   2.400       .  S
O209        H246   0.966       .  S
O210       Zr213   2.409       .  S
O210       Zr229   2.405       .  S
Zr211       O236   2.436       .  S
Zr211       O230   2.418       .  S
Zr211       O238   2.362       .  S
Zr211       O226   2.359       .  S
Zr211       O217   2.389       .  S
Zr211       O218   2.390       .  S
Zr211       O219   2.366       .  S
Zr211       O220   2.371       .  S
Zr212       O231   2.438       .  S
Zr212       O224   2.438       .  S
Zr212       O225   2.516       .  S
Zr212       O218   2.405       .  S
Zr212       O219   2.391       .  S
Zr213       O215   2.435       .  S
Zr213       O237   2.435       .  S
Zr213       O239   2.506       .  S
Zr213       O217   2.407       .  S
Zr213       O220   2.394       .  S
Zr214       O240   2.433       .  S
Zr214       O241   2.436       .  S
Zr214       O216   2.437       .  S
Zr214       O217   2.406       .  S
Zr214       O218   2.403       .  S
O215        H252   0.990       .  S
O216        H247   0.990       .  S
O216        H261   0.990       .  S
O218        H244   0.966       .  S
O219       Zr229   2.372       .  S
O220       Zr229   2.370       .  S
O220        H245   0.965       .  S
C221       C1122   1.486       .  S
C222       C1269   1.493       .  S
C223       C1095   1.480       .  S
O224        H260   0.990       .  S
O225        C227   1.300       .  A
O226        C227   1.272       .  A
C227        C968   1.492       .  S
O228       Zr229   2.437       .  S
O228        H257   0.990       .  S
Zr229       O232   2.436       .  S
Zr229       O233   2.437       .  S
Zr229       O234   2.443       .  S
O230        C235   1.282       .  A
O231        H248   0.990       .  S
O231        H263   0.990       .  S
O232        H249   0.990       .  S
O233        H253   0.990       .  S
O233        H262   0.990       .  S
O234        C235   1.286       .  A
C235        C978   1.488       .  S
O236        H255   0.990       .  S
O236        H259   0.990       .  S
O237        H251   0.990       .  S
O237        H258   0.990       .  S
O238        C242   1.273       .  A
O239        C242   1.298       .  A
O240        H250   0.990       .  S
O241        H254   0.990       .  S
C242        C988   1.480       .  S
Zr265       O266   2.440       .  S
Zr265       O267   2.415       .  S
Zr265       O268   2.370       .  S
Zr265       O271   2.369       .  S
Zr265       O273   2.370       .  S
Zr265       O274   2.374       .  S
Zr265       O275   2.391       .  S
Zr265       O276   2.390       .  S
O266        H322   0.990       .  S
O266        H330   0.990       .  S
O267        C287   1.281       .  A
O268        C289   1.273       .  A
O269       Zr279   2.504       .  S
O269        C288   1.297       .  A
O270       Zr278   2.508       .  S
O270        C289   1.298       .  A
O271        C288   1.275       .  A
O272       Zr280   2.427       .  S
O272        C287   1.283       .  A
O273       Zr278   2.392       .  S
O273       Zr280   2.373       .  S
O274       Zr279   2.393       .  S
O274       Zr280   2.372       .  S
O274        H309   0.965       .  S
O275       Zr278   2.405       .  S
O275       Zr295   2.399       .  S
O275        H312   0.966       .  S
O276       Zr279   2.404       .  S
O276       Zr295   2.402       .  S
Zr277       O302   2.438       .  S
Zr277       O296   2.405       .  S
Zr277       O304   2.375       .  S
Zr277       O292   2.370       .  S
Zr277       O283   2.385       .  S
Zr277       O284   2.395       .  S
Zr277       O285   2.369       .  S
Zr277       O286   2.375       .  S
Zr278       O297   2.439       .  S
Zr278       O290   2.434       .  S
Zr278       O291   2.496       .  S
Zr278       O284   2.413       .  S
Zr278       O285   2.387       .  S
Zr279       O281   2.437       .  S
Zr279       O303   2.434       .  S
Zr279       O305   2.503       .  S
Zr279       O283   2.405       .  S
Zr279       O286   2.393       .  S
Zr280       O306   2.435       .  S
Zr280       O307   2.435       .  S
Zr280       O282   2.436       .  S
Zr280       O283   2.401       .  S
Zr280       O284   2.398       .  S
O281        H318   0.990       .  S
O282        H313   0.990       .  S
O282        H327   0.990       .  S
O284        H310   0.966       .  S
O285       Zr295   2.364       .  S
O286       Zr295   2.373       .  S
O286        H311   0.966       .  S
C287        C938   1.480       .  S
C288        C948   1.483       .  S
C289        C961   1.484       .  S
O290        H326   0.990       .  S
O291        C293   1.297       .  A
O292        C293   1.274       .  A
C293       C1144   1.479       .  S
O294       Zr295   2.434       .  S
O294        H323   0.990       .  S
Zr295       O298   2.435       .  S
Zr295       O299   2.437       .  S
Zr295       O300   2.437       .  S
O296        C301   1.280       .  A
O297        H314   0.990       .  S
O297        H329   0.990       .  S
O298        H315   0.990       .  S
O299        H319   0.990       .  S
O299        H328   0.990       .  S
O300        C301   1.285       .  A
C301       C1291   1.479       .  S
O302        H321   0.990       .  S
O302        H325   0.990       .  S
O303        H317   0.990       .  S
O303        H324   0.990       .  S
O304        C308   1.275       .  A
O305        C308   1.298       .  A
O306        H316   0.990       .  S
O307        H320   0.990       .  S
C308       C1115   1.481       .  S
C331        N332   1.354       .  A
C331        N336   1.367       .  A
C331       C1073   1.489       .  S
N332        C333   1.353   1_554  A
C333        N334   1.369       .  A
C333        C928   1.490       .  S
N334        C335   1.367   1_556  A
C335        N336   1.366       .  A
C335        C926   1.466       .  S
Zr337       O338   2.438       .  S
Zr337       O339   2.398       .  S
Zr337       O340   2.397       .  S
Zr337       O343   2.380       .  S
Zr337       O345   2.369       .  S
Zr337       O346   2.384       .  S
Zr337       O347   2.398       .  S
Zr337       O348   2.390       .  S
O338        H394   0.990       .  S
O338        H402   0.990       .  S
O339        C359   1.280       .  A
O340        C361   1.270       .  A
O341       Zr351   2.503       .  S
O341        C360   1.294       .  A
O342       Zr350   2.493       .  S
O342        C361   1.292       .  A
O343        C360   1.270       .  A
O344       Zr352   2.431       .  S
O344        C359   1.284       .  A
O345       Zr350   2.392       .  S
O345       Zr352   2.371       .  S
O346       Zr351   2.388       .  S
O346       Zr352   2.370       .  S
O346        H381   0.965       .  S
O347       Zr350   2.412       .  S
O347       Zr367   2.393       .  S
O347        H384   0.966       .  S
O348       Zr351   2.401       .  S
O348       Zr367   2.395       .  S
Zr349       O374   2.445       .  S
Zr349       O368   2.388       .  S
Zr349       O376   2.384       .  S
Zr349       O364   2.375       .  S
Zr349       O355   2.393       .  S
Zr349       O356   2.389       .  S
Zr349       O357   2.371       .  S
Zr349       O358   2.382       .  S
Zr350       O369   2.436       .  S
Zr350       O362   2.434       .  S
Zr350       O363   2.492       .  S
Zr350       O356   2.409       .  S
Zr350       O357   2.395       .  S
Zr351       O353   2.433       .  S
Zr351       O375   2.436       .  S
Zr351       O377   2.506       .  S
Zr351       O355   2.399       .  S
Zr351       O358   2.398       .  S
Zr352       O378   2.434       .  S
Zr352       O379   2.437       .  S
Zr352       O354   2.437       .  S
Zr352       O355   2.395       .  S
Zr352       O356   2.389       .  S
O353        H390   0.990       .  S
O354        H385   0.990       .  S
O354        H399   0.990       .  S
O356        H382   0.965       .  S
O357       Zr367   2.376       .  S
O358       Zr367   2.374       .  S
O358        H383   0.966       .  S
C359       C1169   1.468       .  S
C360        C931   1.495       .  S
C361       C1213   1.493       .  S
O362        H398   0.990       .  S
O363        C365   1.296       .  A
O364        C365   1.276       .  A
C365        C896   1.482       .  S
O366       Zr367   2.438       .  S
O366        H395   0.990       .  S
Zr367       O370   2.436       .  S
Zr367       O371   2.439       .  S
Zr367       O372   2.437       .  S
O368        C373   1.277       .  A
O369        H386   0.990       .  S
O369        H401   0.990       .  S
O370        H387   0.990       .  S
O371        H391   0.990       .  S
O371        H400   0.990       .  S
O372        C373   1.284       .  A
C373        C906   1.466       .  S
O374        H393   0.989       .  S
O374        H397   0.989       .  S
O375        H389   0.990       .  S
O375        H396   0.990       .  S
O376        C380   1.270       .  A
O377        C380   1.296       .  A
O378        H388   0.990       .  S
O379        H392   0.989       .  S
C380        C916   1.491       .  S
Zr403       O404   2.439       .  S
Zr403       O405   2.395       .  S
Zr403       O406   2.374       .  S
Zr403       O409   2.369       .  S
Zr403       O411   2.365       .  S
Zr403       O412   2.372       .  S
Zr403       O413   2.382       .  S
Zr403       O414   2.382       .  S
O404        H460   0.991       .  S
O404        H468   0.990       .  S
O405        C425   1.279       .  A
O406        C427   1.275       .  A
O407       Zr417   2.486       .  S
O407        C426   1.294       .  A
O408       Zr416   2.477       .  S
O408        C427   1.292       .  A
O409        C426   1.275       .  A
O410       Zr418   2.442       .  S
O410        C425   1.285       .  A
O411       Zr416   2.390       .  S
O411       Zr418   2.370       .  S
O412       Zr417   2.391       .  S
O412       Zr418   2.370       .  S
O412        H447   0.966       .  S
O413       Zr416   2.403       .  S
O413       Zr433   2.394       .  S
O413        H450   0.966       .  S
O414       Zr417   2.408       .  S
O414       Zr433   2.400       .  S
Zr415       O440   2.440       .  S
Zr415       O434   2.404       .  S
Zr415       O442   2.383       .  S
Zr415       O430   2.379       .  S
Zr415       O421   2.392       .  S
Zr415       O422   2.388       .  S
Zr415       O423   2.370       .  S
Zr415       O424   2.372       .  S
Zr416       O435   2.436       .  S
Zr416       O428   2.434       .  S
Zr416       O429   2.476       .  S
Zr416       O422   2.406       .  S
Zr416       O423   2.385       .  S
Zr417       O419   2.434       .  S
Zr417       O441   2.435       .  S
Zr417       O443   2.492       .  S
Zr417       O421   2.410       .  S
Zr417       O424   2.388       .  S
Zr418       O444   2.435       .  S
Zr418       O445   2.436       .  S
Zr418       O420   2.437       .  S
Zr418       O421   2.410       .  S
Zr418       O422   2.398       .  S
O419        H456   0.990       .  S
O420        H451   0.990       .  S
O420        H465   0.990       .  S
O422        H448   0.966       .  S
O423       Zr433   2.372       .  S
O424       Zr433   2.363       .  S
O424        H449   0.964       .  S
C425       C1159   1.478       .  S
C426       C1191   1.473       .  S
C427       C1254   1.475       .  S
O428        H464   0.990       .  S
O429        C431   1.292       .  A
O430        C431   1.276       .  A
C431        C876   1.471       .  S
O432       Zr433   2.437       .  S
O432        H461   0.990       .  S
Zr433       O436   2.437       .  S
Zr433       O437   2.438       .  S
Zr433       O438   2.427       .  S
O434        C439   1.280       .  A
O435        H452   0.990       .  S
O435        H467   0.990       .  S
O436        H453   0.990       .  S
O437        H457   0.990       .  S
O437        H466   0.990       .  S
O438        C439   1.283       .  A
C439        C889   1.474       .  S
O440        H459   0.990       .  S
O440        H463   0.990       .  S
O441        H455   0.990       .  S
O441        H462   0.990       .  S
O442        C446   1.276       .  A
O443        C446   1.295       .  A
O444        H454   0.990       .  S
O445        H458   0.990       .  S
C446        C866   1.476       .  S
Zr469       O470   2.448       .  S
Zr469       O471   2.394       .  S
Zr469       O472   2.370       .  S
Zr469       O475   2.377       .  S
Zr469       O478   2.371       .  S
Zr469       O479   2.381       .  S
Zr469       O480   2.392       .  S
Zr469       O477   2.286       .  S
O470        H526   0.990       .  S
O470        H534   0.990       .  S
O471        C491   1.278       .  A
O472        C493   1.273       .  A
O473       Zr483   2.507       .  S
O473        C492   1.298       .  A
O474       Zr482   2.495       .  S
O474        C493   1.296       .  A
O475        C492   1.276       .  A
O476       Zr484   2.417       .  S
O476        C491   1.281       .  A
O477       Zr482   2.314       .  S
O477       Zr484   2.302       .  S
O478       Zr483   2.398       .  S
O478       Zr484   2.366       .  S
O478        H513   0.966       .  S
O479       Zr482   2.399       .  S
O479       Zr499   2.398       .  S
O479        H516   0.965       .  S
O480       Zr483   2.407       .  S
O480       Zr499   2.402       .  S
Zr481       O506   2.444       .  S
Zr481       O500   2.405       .  S
Zr481       O508   2.367       .  S
Zr481       O496   2.362       .  S
Zr481       O487   2.387       .  S
Zr481       O488   2.389       .  S
Zr481       O489   2.374       .  S
Zr481       O490   2.373       .  S
Zr482       O501   2.448       .  S
Zr482       O494   2.431       .  S
Zr482       O495   2.517       .  S
Zr482       O488   2.400       .  S
Zr482       O489   2.400       .  S
Zr483       O485   2.435       .  S
Zr483       O507   2.439       .  S
Zr483       O509   2.516       .  S
Zr483       O487   2.404       .  S
Zr483       O490   2.397       .  S
Zr484       O510   2.447       .  S
Zr484       O511   2.447       .  S
Zr484       O486   2.433       .  S
Zr484       O487   2.400       .  S
Zr484       O488   2.386       .  S
O485        H522   0.990       .  S
O486        H517   0.990       .  S
O486        H531   0.990       .  S
O488        H514   0.965       .  S
O489       Zr499   2.379       .  S
O490       Zr499   2.374       .  S
O490        H515   0.966       .  S
C491       C1232   1.470       .  S
C492       C1203   1.489       .  S
C493       C1279   1.481       .  S
O494        H530   0.990       .  S
O495        C497   1.300       .  A
O496        C497   1.272       .  A
C497        C846   1.489       .  S
O498       Zr499   2.437       .  S
O498        H527   0.990       .  S
Zr499       O502   2.434       .  S
Zr499       O503   2.438       .  S
Zr499       O504   2.430       .  S
O500        C505   1.280       .  A
O501        H518   0.990       .  S
O501        H533   0.990       .  S
O502        H519   0.990       .  S
O503        H523   0.990       .  S
O503        H532   0.990       .  S
O504        C505   1.284       .  A
C505        C856   1.477       .  S
O506        H525   0.991       .  S
O506        H529   0.989       .  S
O507        H521   0.990       .  S
O507        H528   0.990       .  S
O508        C512   1.274       .  A
O509        C512   1.300       .  A
O510        H520   0.990       .  S
O511        H524   0.990       .  S
C512        C836   1.489       .  S
Zr535       O536   2.437       .  S
Zr535       O537   2.396       .  S
Zr535       O538   2.381       .  S
Zr535       O541   2.370       .  S
Zr535       O543   2.371       .  S
Zr535       O544   2.378       .  S
Zr535       O545   2.387       .  S
Zr535       O546   2.389       .  S
O536        H592   0.990       .  S
O536        H600   0.990       .  S
O537        C557   1.278       .  A
O538        C559   1.275       .  A
O539       Zr549   2.491       .  S
O539        C558   1.295       .  A
O540       Zr548   2.489       .  S
O540        C559   1.295       .  A
O541        C558   1.275       .  A
O542       Zr550   2.429       .  S
O542        C557   1.284       .  A
O543       Zr548   2.391       .  S
O543       Zr550   2.373       .  S
O544       Zr549   2.394       .  S
O544       Zr550   2.365       .  S
O544        H579   0.965       .  S
O545       Zr548   2.407       .  S
O545       Zr565   2.393       .  S
O545        H582   0.966       .  S
O546       Zr549   2.403       .  S
O546       Zr565   2.399       .  S
Zr547       O572   2.440       .  S
Zr547       O566   2.407       .  S
Zr547       O574   2.375       .  S
Zr547       O562   2.367       .  S
Zr547       O553   2.383       .  S
Zr547       O554   2.388       .  S
Zr547       O555   2.375       .  S
Zr547       O556   2.372       .  S
Zr548       O567   2.435       .  S
Zr548       O560   2.436       .  S
Zr548       O561   2.494       .  S
Zr548       O554   2.405       .  S
Zr548       O555   2.396       .  S
Zr549       O551   2.436       .  S
Zr549       O573   2.434       .  S
Zr549       O575   2.492       .  S
Zr549       O553   2.401       .  S
Zr549       O556   2.388       .  S
Zr550       O576   2.435       .  S
Zr550       O577   2.438       .  S
Zr550       O552   2.436       .  S
Zr550       O553   2.400       .  S
Zr550       O554   2.394       .  S
O551        H588   0.990       .  S
O552        H583   0.990       .  S
O552        H597   0.990       .  S
O554        H580   0.966       .  S
O555       Zr565   2.378       .  S
O556       Zr565   2.374       .  S
O556        H581   0.966       .  S
C557       C1178   1.473       .  S
C558       C1225   1.473       .  S
C559       C1301   1.478       .  S
O560        H596   0.990       .  S
O561        C563   1.295       .  A
O562        C563   1.274       .  A
C563        C816   1.485       .  S
O564       Zr565   2.437       .  S
O564        H593   0.990       .  S
Zr565       O568   2.433       .  S
Zr565       O569   2.440       .  S
Zr565       O570   2.423       .  S
O566        C571   1.280       .  A
O567        H584   0.990       .  S
O567        H599   0.990       .  S
O568        H585   0.990       .  S
O569        H589   0.991       .  S
O569        H598   0.990       .  S
O570        C571   1.283       .  A
C571        C826   1.475       .  S
O572        H591   0.991       .  S
O572        H595   0.990       .  S
O573        H587   0.990       .  S
O573        H594   0.990       .  S
O574        C578   1.275       .  A
O575        C578   1.295       .  A
O576        H586   0.990       .  S
O577        H590   0.990       .  S
C578        C806   1.476       .  S
C601        N602   1.355       .  A
C601        N606   1.356       .  A
C601        C829   1.474       .  S
N602        C603   1.354       .  A
C603        N604   1.366       .  A
C603        C879   1.482       .  S
N604        C605   1.362       .  A
C605        N606   1.355       .  A
C605        C803   1.440       .  S
C607        N608   1.357       .  A
C607        N612   1.357       .  A
C607        C909   1.470       .  S
N608        C609   1.351       .  A
C609        N610   1.353       .  A
C609        C802   1.428       .  S
N610        C611   1.359       .  A
C611        N612   1.358       .  A
C611        C886   1.475       .  S
C613        N614   1.366       .  A
C613        N618   1.352       .  A
C613        C849   1.482       .  S
N614        C615   1.364       .  A
C615        N616   1.370       .  A
C615        C800   1.468       .  S
N616        C617   1.372       .  A
C617        N618   1.354       .  A
C617        C919   1.493       .  S
C619        N620   1.358       .  A
C619        N624   1.359       .  A
C619        C859   1.478       .  S
N620        C621   1.355       .  A
C621        N622   1.366       .  A
C621        C819   1.476       .  S
N622        C623   1.361       .  A
C623        N624   1.354       .  A
C623        C797   1.445       .  S
C625        N626   1.351       .  A
C625        N630   1.370       .  A
C625        C991   1.490       .  S
N626        C627   1.351       .  A
C627        N628   1.369       .  A
C627       C1050   1.486       .  S
N628        C629   1.368       .  A
C629        N630   1.369       .  A
C629        C796   1.472       .  S
C631        N632   1.361       .  A
C631        N636   1.361       .  A
C631        C981   1.488       .  S
N632        C633   1.358       .  A
C633        N634   1.363       .  A
C633        C794   1.454       .  S
N634        C635   1.368       .  A
C635        N636   1.360       .  A
C635        C958   1.493       .  S
C637        N638   1.352       .  A
C637        N642   1.369       .  A
C637        C951   1.487       .  S
N638        C639   1.353       .  A
C639        N640   1.366       .  A
C639       C1021   1.485       .  S
N640        C641   1.364       .  A
C641        N642   1.366       .  A
C641        C791   1.464       .  S
C643        N644   1.353       .  A
C643        N648   1.357       .  A
C643       C1063   1.471       .  S
N644        C645   1.353       .  A
C645        N646   1.369       .  A
C645       C1011   1.481       .  S
N646        C647   1.365       .  A
C647        N648   1.354       .  A
C647        C789   1.448       .  S
C649        N650   1.360       .  A
C649        N654   1.358       .  A
C649        C941   1.481       .  S
N650        C651   1.356       .  A
C651        N652   1.363       .  A
C651        C787   1.451       .  S
N652        C653   1.367       .  A
C653        N654   1.358       .  A
C653        C809   1.489       .  S
C655        N656   1.368       .  A
C655        N660   1.357       .  A
C655        C971   1.492       .  S
N656        C657   1.364       .  A
C657        N658   1.366       .  A
C657        C785   1.468       .  S
N658        C659   1.370       .  A
C659        N660   1.358       .  A
C659        C839   1.495       .  S
C661        N662   1.353       .  A
C661        N666   1.356       .  A
C661       C1001   1.473       .  S
N662        C663   1.353       .  A
C663        N664   1.368       .  A
C663        C869   1.485       .  S
N664        C665   1.365       .  A
C665        N666   1.355       .  A
C665        C783   1.444       .  S
C667        N668   1.371       .  A
C667        N672   1.352       .  A
C667       C1043   1.489       .  S
N668        C669   1.369       .  A
C669        N670   1.365       .  A
C669        C781   1.470       .  S
N670        C671   1.367       .  A
C671        N672   1.350       .  A
C671        C899   1.482       .  S
O673       Zr709   2.473   1_565  S
O673        C684   1.298       .  A
O674       Zr708   2.436   1_565  S
O674        C685   1.290   1_554  A
O675       Zr681   2.453       .  S
O675        C686   1.293       .  A
O676       Zr681   2.442   1_554  S
O676        C687   1.291       .  A
O677       Zr711   2.495   1_565  S
O677        C687   1.302       .  A
O678       Zr710   2.443   1_565  S
O678        C686   1.291       .  A
O679       Zr681   2.460   1_455  S
O679        C685   1.294       .  A
O680       Zr681   2.440       .  S
O680        C684   1.291       .  A
Zr681       O682   2.346   1_656  S
Zr681       O683   2.347       .  S
Zr681       O691   2.356   1_556  S
Zr681       O689   2.334   1_655  S
O682       Zr708   2.344   1_565  S
O682       Zr711   2.345   1_465  S
O683       Zr709   2.344   1_565  S
O683       Zr710   2.338   1_565  S
C684       C1308   1.450       .  S
C685       C1263   1.442       .  S
C686       C1198   1.443       .  S
C687       C1153   1.463       .  S
H688        O689   0.948       .  S
O689       Zr708   2.338   1_566  S
O689       Zr710   2.334   1_465  S
H690        O691   0.960       .  S
O691       Zr709   2.353   1_564  S
O691       Zr711   2.345   1_565  S
O692       Zr708   2.438       .  S
O692        C715   1.290       .  A
O693       Zr709   2.465   1_554  S
O693        C716   1.296       .  A
O694       Zr710   2.436   1_455  S
O694        C717   1.289       .  A
O695       Zr711   2.461   1_455  S
O695        C718   1.295       .  A
O696       Zr711   2.465       .  S
O696        C719   1.296       .  A
O697       Zr710   2.436       .  S
O697        C720   1.290       .  A
O698       Zr712   2.514   1_556  S
O698        C721   1.306       .  A
O699       Zr712   2.503       .  S
O699        C722   1.305       .  A
O700       Zr710   2.434       .  S
O700        C721   1.290       .  A
O701       Zr711   2.454       .  S
O701        C722   1.295       .  A
O702       Zr708   2.432   1_556  S
O702        C717   1.289       .  A
O703       Zr709   2.451       .  S
O703        C720   1.292       .  A
O704       Zr709   2.452   1_554  S
O704        C719   1.293       .  A
O705       Zr708   2.435       .  S
O705        C718   1.289       .  A
O706       Zr712   2.500   1_455  S
O706        C715   1.303       .  A
O707       Zr712   2.500       .  S
O707        C716   1.304       .  A
Zr708       O714   2.343   1_554  S
Zr708       O726   2.347   1_455  S
Zr709       O713   2.350   1_556  S
Zr709       O724   2.361       .  S
Zr710       O714   2.346   1_655  S
Zr710       O724   2.352       .  S
Zr711       O713   2.361       .  S
Zr711       O726   2.372       .  S
Zr712       O713   2.366       .  S
Zr712       O714   2.350   1_654  S
Zr712       O726   2.378       .  S
Zr712       O724   2.371   1_554  S
C715        C925   1.464       .  S
C716       C1286   1.474       .  S
C717       C1175   1.428       .  S
C718       C1028   1.444       .  S
C719       C1132   1.454       .  S
C720       C1242   1.441       .  S
C721       C1220   1.468       .  S
C722       C1089   1.467       .  S
H723        O724   0.967       .  S
H725        O726   0.968   1_455  S
O727       Zr763   2.448       .  S
O727        C738   1.292       .  A
O728       Zr762   2.515       .  S
O728        C739   1.306       .  A
O729       Zr735   2.438       .  S
O729        C740   1.290       .  A
O730       Zr735   2.441       .  S
O730        C741   1.291       .  A
O731       Zr765   2.460       .  S
O731        C741   1.294       .  A
O732       Zr764   2.423       .  S
O732        C740   1.287       .  A
O733       Zr735   2.432       .  S
O733        C739   1.289       .  A
O734       Zr735   2.440       .  S
O734        C738   1.290       .  A
Zr735       O736   2.349       .  S
Zr735       O737   2.333       .  S
Zr735       O745   2.342       .  S
Zr735       O743   2.350       .  S
O736       Zr762   2.366       .  S
O736       Zr765   2.358       .  S
O737       Zr763   2.333       .  S
O737       Zr764   2.335       .  S
C738        C804   1.440       .  S
C739        C799   1.466       .  S
C740        C801   1.428       .  S
C741        C798   1.445       .  S
H742        O743   0.965       .  S
O743       Zr762   2.354       .  S
O743       Zr764   2.347       .  S
H744        O745   0.965       .  S
O745       Zr763   2.345       .  S
O745       Zr765   2.347       .  S
O746       Zr762   2.501       .  S
O746        C769   1.305       .  A
O747       Zr763   2.441       .  S
O747        C770   1.291       .  A
O748       Zr764   2.443       .  S
O748        C771   1.291       .  A
O749       Zr765   2.457       .  S
O749        C772   1.295       .  A
O750       Zr765   2.467       .  S
O750        C773   1.296       .  A
O751       Zr764   2.434       .  S
O751        C774   1.289       .  A
O752       Zr766   2.473       .  S
O752        C775   1.297       .  A
O753       Zr766   2.468       .  S
O753        C776   1.296       .  A
O754       Zr764   2.435       .  S
O754        C775   1.289       .  A
O755       Zr765   2.451       .  S
O755        C776   1.293       .  A
O756       Zr762   2.507       .  S
O756        C771   1.305       .  A
O757       Zr763   2.461       .  S
O757        C774   1.294       .  A
O758       Zr763   2.449       .  S
O758        C773   1.292       .  A
O759       Zr762   2.495       .  S
O759        C772   1.303       .  A
O760       Zr766   2.464       .  S
O760        C769   1.296       .  A
O761       Zr766   2.496       .  S
O761        C770   1.302       .  A
Zr762       O768   2.368       .  S
Zr762       O780   2.377       .  S
Zr763       O767   2.352       .  S
Zr763       O778   2.349       .  S
Zr764       O768   2.342       .  S
Zr764       O778   2.348       .  S
Zr765       O767   2.349       .  S
Zr765       O780   2.359       .  S
Zr766       O767   2.346       .  S
Zr766       O768   2.364       .  S
Zr766       O780   2.368       .  S
Zr766       O778   2.351       .  S
C769        C795   1.471       .  S
C770        C792   1.463       .  S
C771        C782   1.468       .  S
C772        C786   1.467       .  S
C773        C788   1.452       .  S
C774        C784   1.444       .  S
C775        C790   1.448       .  S
C776        C793   1.454       .  S
H777        O778   0.966       .  S
H779        O780   0.966       .  S
C781        C782   1.226       .  T
C783        C784   1.211       .  T
C785        C786   1.225       .  T
C787        C788   1.216       .  T
C789        C790   1.214       .  T
C791        C792   1.222       .  T
C793        C794   1.217       .  T
C795        C796   1.227       .  T
C797        C798   1.212       .  T
C799        C800   1.225       .  T
C801        C802   1.202       .  T
C803        C804   1.209       .  T
C805        C806   1.402       .  A
C805        C810   1.406       .  A
C805        H811   1.083       .  S
C806        C807   1.407       .  A
C807        C808   1.397       .  A
C807        H812   1.084       .  S
C808        C809   1.402       .  A
C808        H813   1.083       .  S
C809        C810   1.412       .  A
C810        H814   1.083       .  S
C815        C816   1.411       .  A
C815        C820   1.389       .  A
C815        H821   1.083       .  S
C816        C817   1.405       .  A
C817        C818   1.410       .  A
C817        H822   1.083       .  S
C818        C819   1.412       .  A
C818        H823   1.083       .  S
C819        C820   1.395       .  A
C820        H824   1.084       .  S
C825        C826   1.406       .  A
C825        C830   1.395       .  A
C825        H831   1.083       .  S
C826        C827   1.404       .  A
C827        C828   1.392       .  A
C827        H832   1.083       .  S
C828        C829   1.405       .  A
C828        H833   1.083       .  S
C829        C830   1.404       .  A
C830        H834   1.083       .  S
C835        C836   1.402       .  A
C835        C840   1.409       .  A
C835        H841   1.083       .  S
C836        C837   1.413       .  A
C837        C838   1.399       .  A
C837        H842   1.084       .  S
C838        C839   1.402       .  A
C838        H843   1.083       .  S
C839        C840   1.415       .  A
C840        H844   1.083       .  S
C845        C846   1.402       .  A
C845        C850   1.408       .  A
C845        H851   1.083       .  S
C846        C847   1.415       .  A
C847        C848   1.394       .  A
C847        H852   1.083       .  S
C848        C849   1.396       .  A
C848        H853   1.083       .  S
C849        C850   1.413       .  A
C850        H854   1.083       .  S
C855        C856   1.404       .  A
C855        C860   1.396       .  A
C855        H861   1.083       .  S
C856        C857   1.406       .  A
C857        C858   1.393       .  A
C857        H862   1.083       .  S
C858        C859   1.404       .  A
C858        H863   1.083       .  S
C859        C860   1.407       .  A
C860        H864   1.083       .  S
C865        C866   1.410       .  A
C865        C870   1.397       .  A
C865        H871   1.084       .  S
C866        C867   1.399       .  A
C867        C868   1.404       .  A
C867        H872   1.083       .  S
C868        C869   1.415       .  A
C868        H873   1.083       .  S
C869        C870   1.399       .  A
C870        H874   1.083       .  S
C875        C876   1.407       .  A
C875        C880   1.394       .  A
C875        H881   1.084       .  S
C876        C877   1.399       .  A
C877        C878   1.403       .  A
C877        H882   1.083       .  S
C878        C879   1.413       .  A
C878        H883   1.083       .  S
C879        C880   1.400       .  A
C880        H884   1.083       .  S
C885        C886   1.406       .  A
C885        C890   1.396       .  A
C885        H891   1.083       .  S
C886        C887   1.404       .  A
C887        C888   1.391       .  A
C887        H892   1.083       .  S
C888        C889   1.405       .  A
C888        H893   1.083       .  S
C889        C890   1.405       .  A
C890        H894   1.083       .  S
C895        C896   1.401       .  A
C895        C900   1.406       .  A
C895        H901   1.083       .  S
C896        C897   1.412       .  A
C897        C898   1.392       .  A
C897        H902   1.083       .  S
C898        C899   1.396       .  A
C898        H903   1.083       .  S
C899        C900   1.415       .  A
C900        H904   1.083       .  S
C905        C906   1.402       .  A
C905        C910   1.398       .  A
C905        H911   1.083       .  S
C906        C907   1.404       .  A
C907        C908   1.388       .  A
C907        H912   1.084       .  S
C908        C909   1.402       .  A
C908        H913   1.083       .  S
C909        C910   1.407       .  A
C910        H914   1.083       .  S
C915        C916   1.415       .  A
C915        C920   1.401       .  A
C915        H921   1.083       .  S
C916        C917   1.402       .  A
C917        C918   1.405       .  A
C917        H922   1.083       .  S
C918        C919   1.415       .  A
C918        H923   1.083       .  S
C919        C920   1.400       .  A
C920        H924   1.083       .  S
C925        C926   1.224       .  T
C927        C928   1.398       .  A
C927        C932   1.397       .  A
C927        H933   1.083       .  S
C928        C929   1.415       .  A
C929        C930   1.407       .  A
C929        H934   1.083       .  S
C930        C931   1.403       .  A
C930        H935   1.083       .  S
C931        C932   1.415       .  A
C932        H936   1.082       .  S
C937        C938   1.406       .  A
C937        C942   1.395       .  A
C937        H943   1.083       .  S
C938        C939   1.406       .  A
C939        C940   1.397       .  A
C939        H944   1.083       .  S
C940        C941   1.407       .  A
C940        H945   1.083       .  S
C941        C942   1.405       .  A
C942        H946   1.083       .  S
C947        C948   1.411       .  A
C947        C952   1.393       .  A
C947        H953   1.084       .  S
C948        C949   1.401       .  A
C949        C950   1.409       .  A
C949        H954   1.083       .  S
C950        C951   1.417       .  A
C950        H955   1.083       .  S
C951        C952   1.397       .  A
C952        H956   1.083       .  S
C957        C958   1.402       .  A
C957        C962   1.398       .  A
C957        H963   1.083       .  S
C958        C959   1.413       .  A
C959        C960   1.409       .  A
C959        H964   1.083       .  S
C960        C961   1.403       .  A
C960        H965   1.083       .  S
C961        C962   1.410       .  A
C962        H966   1.084       .  S
C967        C968   1.402       .  A
C967        C972   1.412       .  A
C967        H973   1.083       .  S
C968        C969   1.414       .  A
C969        C970   1.393       .  A
C969        H974   1.083       .  S
C970        C971   1.399       .  A
C970        H975   1.083       .  S
C971        C972   1.416       .  A
C972        H976   1.083       .  S
C977        C978   1.406       .  A
C977        C982   1.401       .  A
C977        H983   1.083       .  S
C978        C979   1.408       .  A
C979        C980   1.398       .  A
C979        H984   1.083       .  S
C980        C981   1.406       .  A
C980        H985   1.083       .  S
C981        C982   1.408       .  A
C982        H986   1.083       .  S
C987        C988   1.412       .  A
C987        C992   1.398       .  A
C987        H993   1.084       .  S
C988        C989   1.399       .  A
C989        C990   1.405       .  A
C989        H994   1.083       .  S
C990        C991   1.416       .  A
C990        H995   1.083       .  S
C991        C992   1.399       .  A
C992        H996   1.083       .  S
C997        C998   1.408       .  A
C997       C1002   1.393       .  A
C997       H1003   1.083       .  S
C998        C999   1.402       .  A
C999       C1000   1.392       .  A
C999       H1004   1.083       .  S
C1000      C1001   1.406       .  A
C1000      H1005   1.083       .  S
C1001      C1002   1.402       .  A
C1002      H1006   1.083       .  S
C1007      C1008   1.409       .  A
C1007      C1012   1.394       .  A
C1007      H1013   1.084       .  S
C1008      C1009   1.398       .  A
C1009      C1010   1.402       .  A
C1009      H1014   1.083       .  S
C1010      C1011   1.413       .  A
C1010      H1015   1.083       .  S
C1011      C1012   1.399       .  A
C1012      H1016   1.083       .  S
C1017      C1018   1.399       .  A
C1017      C1022   1.401       .  A
C1017      H1023   1.083       .  S
C1018      C1019   1.411       .  A
C1019      C1020   1.396       .  A
C1019      H1024   1.084       .  S
C1020      C1021   1.400       .  A
C1020      H1025   1.083       .  S
C1021      C1022   1.414       .  A
C1022      H1026   1.083       .  S
C1027      C1028   1.211       .  T
C1029      C1030   1.401       .  A
C1029      C1034   1.395       .  A
C1029      H1035   1.083       .  S
C1030      C1031   1.411       .  A
C1031      C1032   1.403       .  A
C1031      H1036   1.083       .  S
C1032      C1033   1.400       .  A
C1032      H1037   1.083       .  S
C1033      C1034   1.408       .  A
C1034      H1038   1.084       .  S
C1039      C1040   1.412       .  A
C1039      C1044   1.398       .  A
C1039      H1045   1.084       .  S
C1040      C1041   1.398       .  A
C1041      C1042   1.404       .  A
C1041      H1046   1.083       .  S
C1042      C1043   1.416       .  A
C1042      H1047   1.083       .  S
C1043      C1044   1.399       .  A
C1044      H1048   1.083       .  S
C1049      C1050   1.398       .  A
C1049      C1054   1.396       .  A
C1049      H1055   1.083       .  S
C1050      C1051   1.415       .  A
C1051      C1052   1.404       .  A
C1051      H1056   1.083       .  S
C1052      C1053   1.398       .  A
C1052      H1057   1.083       .  S
C1053      C1054   1.412       .  A
C1054      H1058   1.082       .  S
C1059      C1060   1.404       .  A
C1059      C1064   1.393       .  A
C1059      H1065   1.083       .  S
C1060      C1061   1.406       .  A
C1061      C1062   1.390       .  A
C1061      H1066   1.083       .  S
C1062      C1063   1.402       .  A
C1062      H1067   1.083       .  S
C1063      C1064   1.406       .  A
C1064      H1068   1.083       .  S
C1069      C1070   1.413       .  A
C1069      C1074   1.398       .  A
C1069      H1075   1.084       .  S
C1070      C1071   1.400       .  A
C1071      C1072   1.404       .  A
C1071      H1076   1.083       .  S
C1072      C1073   1.414       .  A
C1072      H1077   1.083       .  S
C1073      C1074   1.400       .  A
C1074      H1078   1.083       .  S
C1079      C1080   1.406       .  A
C1079      C1084   1.399       .  A
C1079      H1085   1.083       .  S
C1080      C1081   1.405       .  A
C1081      C1082   1.390       .  A
C1081      H1086   1.082       .  S
C1082      C1083   1.404       .  A
C1082      H1087   1.083       .  S
C1083      C1084   1.407       .  A
C1084      H1088   1.083       .  S
C1089      C1090   1.225       .  T
C1091      C1092   1.415       .  A
C1091      C1096   1.405       .  A
C1091      H1097   1.083       .  S
C1092      C1093   1.401       .  A
C1093      C1094   1.399       .  A
C1093      H1098   1.083       .  S
C1094      C1095   1.412       .  A
C1094      H1099   1.084       .  S
C1095      C1096   1.399       .  A
C1096      H1100   1.083       .  S
C1101      C1102   1.398       .  A
C1101      C1106   1.394       .  A
C1101      H1107   1.083       .  S
C1102      C1103   1.415       .  A
C1103      C1104   1.406       .  A
C1103      H1108   1.083   1_455  S
C1104      C1105   1.400       .  A
C1104      H1109   1.083       .  S
C1105      C1106   1.411       .  A
C1106      H1110   1.083       .  S
C1111      C1112   1.413       .  A
C1111      C1116   1.408       .  A
C1111      H1117   1.083       .  S
C1112      C1113   1.402       .  A
C1113      C1114   1.399       .  A
C1113      H1118   1.083       .  S
C1114      C1115   1.409       .  A
C1114      H1119   1.084       .  S
C1115      C1116   1.402       .  A
C1116      H1120   1.083       .  S
C1121      C1122   1.409       .  A
C1121      C1126   1.398       .  A
C1121      H1127   1.083       .  S
C1122      C1123   1.405       .  A
C1123      C1124   1.400       .  A
C1123      H1128   1.083       .  S
C1124      C1125   1.408       .  A
C1124      H1129   1.083       .  S
C1125      C1126   1.405       .  A
C1126      H1130   1.083       .  S
C1131      C1132   1.217       .  T
C1133      C1134   1.399       .  A
C1133      C1138   1.396       .  A
C1133      H1139   1.083       .  S
C1134      C1135   1.414       .  A
C1135      C1136   1.403       .  A
C1135      H1140   1.083       .  S
C1136      C1137   1.399       .  A
C1136      H1141   1.083       .  S
C1137      C1138   1.411       .  A
C1138      H1142   1.084       .  S
C1143      C1144   1.399       .  A
C1143      C1148   1.403       .  A
C1143      H1149   1.083       .  S
C1144      C1145   1.412       .  A
C1145      C1146   1.397       .  A
C1145      H1150   1.083       .  S
C1146      C1147   1.399       .  A
C1146      H1151   1.083       .  S
C1147      C1148   1.414       .  A
C1148      H1152   1.083       .  S
C1153      C1154   1.223       .  T
C1155      C1156   1.408       .  A
C1155      C1160   1.401       .  A
C1155      H1161   1.083       .  S
C1156      C1157   1.402       .  A
C1157      C1158   1.388       .  A
C1157      H1162   1.083       .  S
C1158      C1159   1.406       .  A
C1158      H1163   1.083       .  S
C1159      C1160   1.405       .  A
C1160      H1164   1.083       .  S
C1165      C1166   1.404       .  A
C1165      C1170   1.395       .  A
C1165      H1171   1.083       .  S
C1166      C1167   1.404       .  A
C1167      C1168   1.389       .  A
C1167      H1172   1.083       .  S
C1168      C1169   1.404       .  A
C1168      H1173   1.084       .  S
C1169      C1170   1.404       .  A
C1170      H1174   1.083       .  S
C1175      C1176   1.202       .  T
C1177      C1178   1.403       .  A
C1177      C1182   1.392       .  A
C1177      H1183   1.083       .  S
C1178      C1179   1.407       .  A
C1179      C1180   1.394       .  A
C1179      H1184   1.083       .  S
C1180      C1181   1.403       .  A
C1180      H1185   1.083       .  S
C1181      C1182   1.406       .  A
C1182      H1186   1.083       .  S
C1187      C1188   1.400       .  A
C1187      C1192   1.393       .  A
C1187      H1193   1.083       .  S
C1188      C1189   1.414       .  A
C1189      C1190   1.403       .  A
C1189      H1194   1.083       .  S
C1190      C1191   1.399       .  A
C1190      H1195   1.083       .  S
C1191      C1192   1.409       .  A
C1192      H1196   1.084       .  S
C1197      C1198   1.210       .  T
C1199      C1200   1.414       .  A
C1199      C1204   1.412       .  A
C1199      H1205   1.083       .  S
C1200      C1201   1.396       .  A
C1201      C1202   1.390       .  A
C1201      H1206   1.083       .  S
C1202      C1203   1.412       .  A
C1202      H1207   1.084       .  S
C1203      C1204   1.405       .  A
C1204      H1208   1.083       .  S
C1209      C1210   1.401       .  A
C1209      C1214   1.400       .  A
C1209      H1215   1.083       .  S
C1210      C1211   1.415       .  A
C1211      C1212   1.406       .  A
C1211      H1216   1.083       .  S
C1212      C1213   1.402       .  A
C1212      H1217   1.083       .  S
C1213      C1214   1.414       .  A
C1214      H1218   1.083       .  S
C1219      C1220   1.226       .  T
C1221      C1222   1.413       .  A
C1221      C1226   1.405       .  A
C1221      H1227   1.083       .  S
C1222      C1223   1.399       .  A
C1223      C1224   1.392       .  A
C1223      H1228   1.083       .  S
C1224      C1225   1.409       .  A
C1224      H1229   1.084       .  S
C1225      C1226   1.399       .  A
C1226      H1230   1.083       .  S
C1231      C1232   1.404       .  A
C1231      C1236   1.388       .  A
C1231      H1237   1.083       .  S
C1232      C1233   1.405       .  A
C1233      C1234   1.396       .  A
C1233      H1238   1.083       .  S
C1234      C1235   1.405       .  A
C1234      H1239   1.083       .  S
C1235      C1236   1.403       .  A
C1236      H1240   1.083       .  S
C1241      C1242   1.209       .  T
C1243      C1244   1.402       .  A
C1243      C1248   1.388       .  A
C1243      H1249   1.083       .  S
C1244      C1245   1.405       .  A
C1245      C1246   1.396       .  A
C1245      H1250   1.083       .  S
C1246      C1247   1.403       .  A
C1246      H1251   1.083       .  S
C1247      C1248   1.407       .  A
C1248      H1252   1.083       .  S
C1253      C1254   1.400       .  A
C1253      C1258   1.404       .  A
C1253      H1259   1.083       .  S
C1254      C1255   1.408       .  A
C1255      C1256   1.392       .  A
C1255      H1260   1.084       .  S
C1256      C1257   1.400       .  A
C1256      H1261   1.083       .  S
C1257      C1258   1.414       .  A
C1258      H1262   1.083       .  S
C1263      C1264   1.210       .  T
C1265      C1266   1.398       .  A
C1265      C1270   1.396       .  A
C1265      H1271   1.083       .  S
C1266      C1267   1.417       .  A
C1267      C1268   1.413       .  A
C1267      H1272   1.083       .  S
C1268      C1269   1.403       .  A
C1268      H1273   1.083       .  S
C1269      C1270   1.414       .  A
C1270      H1274   1.084       .  S
C1275      C1276   1.402       .  A
C1275      C1280   1.401       .  A
C1275      H1281   1.083       .  S
C1276      C1277   1.415       .  A
C1277      C1278   1.405       .  A
C1277      H1282   1.083       .  S
C1278      C1279   1.400       .  A
C1278      H1283   1.083       .  S
C1279      C1280   1.411       .  A
C1280      H1284   1.084       .  S
C1285      C1286   1.229       .  T
C1287      C1288   1.405       .  A
C1287      C1292   1.395       .  A
C1287      H1293   1.083       .  S
C1288      C1289   1.406       .  A
C1289      C1290   1.397       .  A
C1289      H1294   1.083       .  S
C1290      C1291   1.404       .  A
C1290      H1295   1.083       .  S
C1291      C1292   1.407       .  A
C1292      H1296   1.083       .  S
C1297      C1298   1.403       .  A
C1297      C1302   1.399       .  A
C1297      H1303   1.083       .  S
C1298      C1299   1.412       .  A
C1299      C1300   1.405       .  A
C1299      H1304   1.083       .  S
C1300      C1301   1.402       .  A
C1300      H1305   1.083       .  S
C1301      C1302   1.408       .  A
C1302      H1306   1.084       .  S
C1307      C1308   1.215       .  T
