geometry optimzed in LAMMPS
_audit_creation_date              2020-12-01 
_audit_creation_method            'lammps2cif' 
_symmetry_space_group_name_H-M    'P1' 
_symmetry_Int_Tables_number       1 
_symmetry_cell_setting            triclinic 
loop_ 
_symmetry_equiv_pos_as_xyz 
  x,y,z 
_cell_length_a                    30.55506875 
_cell_length_b                    30.43648486391763 
_cell_length_c                    53.5840392036651 
_cell_angle_alpha                 90.54206767720763 
_cell_angle_beta                  90.11520349575477 
_cell_angle_gamma                 90.11474296802541 
loop_ 
_atom_site_label 
_atom_site_type_symbol 
_atom_site_fract_x 
_atom_site_fract_y 
_atom_site_fract_z 
_atom_site_charge 
O1          O  0.13441702  0.82862203  0.51744622    -0.71700
O2          O  0.02919486  0.84190090  0.55496031    -0.71900
O3          O  0.06038815  0.87568136  0.51282387    -0.71700
O4          O  0.10148851  0.79430137  0.55959102    -0.71700
O5          O  0.13476288  0.84631964  0.58029077    -0.71700
O6          O  0.08579432  0.92964644  0.53521257    -0.71700
O7          O  0.06063436  0.89216462  0.57769240    -0.71700
O8          O  0.16189253  0.88476091  0.53739219    -0.71800
V9          V  0.08220693  0.83615305  0.53652973     1.35200
V10         V  0.11060204  0.88722128  0.55713425     1.35200
C11         C  0.16558196  0.85557377  0.52061967     0.77600
C12         C  0.02745186  0.86857600  0.57323037     0.77600
C13         C  0.06300961  0.91652044  0.51679996     0.77500
C14         C  0.12297329  0.80647021  0.57851242     0.77500
O15         O  0.87170427  0.84829032  0.71031870    -0.71700
O16         O  0.87659306  0.74926985  0.66671191    -0.71900
O17         O  0.91021426  0.83010301  0.66644400    -0.71700
O18         O  0.83830487  0.76628879  0.71058719    -0.71700
O19         O  0.78049450  0.79447559  0.69349458    -0.71700
O20         O  0.85310228  0.84705395  0.64432834    -0.71700
O21         O  0.81484217  0.76885513  0.65000266    -0.71700
O22         O  0.81862047  0.87469205  0.68800226    -0.71800
V23         V  0.87306100  0.79898942  0.68826404     1.35200
V24         V  0.81768892  0.82110252  0.66946231     1.35200
C25         C  0.84563126  0.87942648  0.70574937     0.77600
C26         C  0.84633887  0.74217371  0.65101065     0.77600
C27         C  0.89425663  0.84697995  0.64701599     0.77500
C28         C  0.79713322  0.76888393  0.70943255     0.77500
O29         O  0.10985397  0.56031541  0.70572462    -0.71700
O30         O  0.11173322  0.66364879  0.66695071    -0.71900
O31         O  0.07446832  0.58495629  0.66219753    -0.71700
O32         O  0.14717491  0.64056304  0.71019207    -0.71700
O33         O  0.20480201  0.61523343  0.69134557    -0.71700
O34         O  0.13174779  0.56396290  0.64130831    -0.71700
O35         O  0.17095469  0.64155185  0.64831595    -0.71700
O36         O  0.16584953  0.53539949  0.68523659    -0.71800
V37         V  0.11202604  0.61168864  0.68599301     1.35200
V38         V  0.16729449  0.58904580  0.66707007     1.35200
C39         C  0.13688291  0.52967310  0.70180952     0.77600
C40         C  0.14147843  0.67020376  0.65104540     0.77600
C41         C  0.09057866  0.56754269  0.64282226     0.77500
C42         C  0.18831105  0.63957161  0.70813194     0.77500
O43         O  0.85457671  0.59586767  0.50869600    -0.71700
O44         O  0.95875983  0.58398979  0.54795497    -0.71900
O45         O  0.93005113  0.55072166  0.50461114    -0.71700
O46         O  0.88523871  0.63000213  0.55212718    -0.71700
O47         O  0.85291587  0.57673057  0.57159090    -0.71700
O48         O  0.90399491  0.49577036  0.52539413    -0.71700
O49         O  0.92730303  0.53205207  0.56877854    -0.71700
O50         O  0.82720873  0.53925405  0.52753091    -0.71800
V51         V  0.90628549  0.58912921  0.52860846     1.35200
V52         V  0.87799637  0.53702264  0.54779348     1.35200
C53         C  0.82360650  0.56842704  0.51105575     0.77600
C54         C  0.96015163  0.55653435  0.56560948     0.77600
C55         C  0.92778222  0.50982338  0.50786352     0.77500
C56         C  0.86442994  0.61671203  0.57086922     0.77500
O57         O  0.60975155  0.57192532  0.76589210    -0.71700
O58         O  0.61688039  0.67157823  0.80897149    -0.71900
O59         O  0.64937591  0.65093925  0.76460375    -0.71700
O60         O  0.57623065  0.59369856  0.81051643    -0.71700
O61         O  0.63272514  0.56892733  0.83057136    -0.71700
O62         O  0.70656849  0.62109035  0.78141138    -0.71700
O63         O  0.67568428  0.64504642  0.82579272    -0.71700
O64         O  0.66417085  0.54248738  0.78579089    -0.71800
V65         V  0.61415603  0.62129107  0.78781538     1.35200
V66         V  0.66878348  0.59458892  0.80540500     1.35200
C67         C  0.63507017  0.53961894  0.76905028     0.77600
C68         C  0.64814364  0.67568890  0.82437515     0.77600
C69         C  0.69039942  0.64743773  0.76566328     0.77500
C70         C  0.59160503  0.57355127  0.82903394     0.77500
O71         O  0.35130761  0.59400305  0.95986097    -0.71700
O72         O  0.45390097  0.58288164  0.91911364    -0.71900
O73         O  0.37985142  0.62880339  0.91630808    -0.71700
O74         O  0.42747162  0.54972511  0.96240325    -0.71700
O75         O  0.40125692  0.49448228  0.94135755    -0.71700
O76         O  0.34682324  0.57549505  0.89663163    -0.71700
O77         O  0.42164897  0.53095135  0.89799442    -0.71700
O78         O  0.32362065  0.53731126  0.94068226    -0.71800
V79         V  0.40221288  0.58786837  0.93912914     1.35200
V80         V  0.37344813  0.53563175  0.91970680     1.35200
C81         C  0.32054354  0.56609716  0.95771595     0.77600
C82         C  0.45450113  0.55546161  0.90111504     0.77600
C83         C  0.35802766  0.61565640  0.89770821     0.77500
C84         C  0.42587197  0.50880358  0.95872690     0.77500
O85         O  0.36907794  0.84873435  0.76114954    -0.71700
O86         O  0.36819460  0.75017577  0.80420791    -0.71900
O87         O  0.33275285  0.76766288  0.75979438    -0.71700
O88         O  0.40455309  0.82981282  0.80555269    -0.71700
O89         O  0.34698789  0.85197876  0.82581296    -0.71700
O90         O  0.27474483  0.79517565  0.77724414    -0.71700
O91         O  0.30819728  0.77349870  0.82145209    -0.71700
O92         O  0.31328361  0.87582283  0.78085780    -0.71800
V93         V  0.36739669  0.79971937  0.78292211     1.35200
V94         V  0.31181711  0.82400589  0.80082553     1.35200
C95         C  0.34224986  0.87995518  0.76409742     0.77600
C96         C  0.33826143  0.74510556  0.82024144     0.77600
C97         C  0.29157680  0.76925988  0.76134321     0.77500
C98         C  0.38820551  0.84907186  0.82426813     0.77500
O99         O  0.62886701  0.83760459  0.95598690    -0.71700
O100        O  0.53037619  0.83672071  0.91241576    -0.71900
O101        O  0.61042842  0.80069312  0.91159926    -0.71700
O102        O  0.54851459  0.87268069  0.95653853    -0.71700
O103        O  0.57613116  0.93087030  0.93956836    -0.71700
O104        O  0.63205307  0.85826839  0.89124683    -0.71700
O105        O  0.55373562  0.89669431  0.89537334    -0.71700
O106        O  0.65586964  0.89291997  0.93584390    -0.71800
V107        V  0.58022000  0.83801572  0.93380059     1.35200
V108        V  0.60425300  0.89363028  0.91593922     1.35200
C109        C  0.65942324  0.86521864  0.95318807     0.77600
C110        C  0.52455604  0.86734912  0.89692777     0.77600
C111        C  0.62975672  0.81696479  0.89309620     0.77500
C112        C  0.55071417  0.91392352  0.95545019     0.77500
O113        O  0.63463068  0.32771097  0.01370688    -0.71700
O114        O  0.53273890  0.33519784  0.05468981    -0.71900
O115        O  0.55498556  0.36659846  0.01047180    -0.71700
O116        O  0.61049347  0.29514810  0.05810164    -0.71700
O117        O  0.63629761  0.35268426  0.07742045    -0.71700
O118        O  0.58143283  0.42479993  0.02863559    -0.71700
O119        O  0.55957693  0.39334390  0.07271027    -0.71700
O120        O  0.66063438  0.38564384  0.03250652    -0.71800
V121        V  0.58401431  0.33222878  0.03452308     1.35200
V122        V  0.60939596  0.38794315  0.05231884     1.35200
C123        C  0.66511337  0.35573393  0.01620941     0.77600
C124        C  0.52864912  0.36619778  0.07050086     0.77600
C125        C  0.55575191  0.40789606  0.01259364     0.77500
C126        C  0.63066539  0.31143457  0.07656635     0.77500
O127        O  0.37268961  0.36085751  0.20180716    -0.71700
O128        O  0.36519796  0.25640798  0.16210286    -0.71900
O129        O  0.40474356  0.33461422  0.15754142    -0.71700
O130        O  0.33427598  0.28155549  0.20626464    -0.71700
O131        O  0.27576837  0.30518746  0.18763008    -0.71700
O132        O  0.34707135  0.36028342  0.13885236    -0.71700
O133        O  0.30785370  0.28246774  0.14361067    -0.71700
O134        O  0.31390877  0.38520304  0.18384126    -0.71800
V135        V  0.36813809  0.30910393  0.18161892     1.35200
V136        V  0.31231797  0.33323172  0.16395521     1.35200
C137        C  0.34416514  0.39073462  0.19970968     0.77600
C138        C  0.33473139  0.25147089  0.14620050     0.77600
C139        C  0.38807917  0.35470215  0.13942440     0.77500
C140        C  0.29320815  0.28161724  0.20423365     0.77500
O141        O  0.60359227  0.07596610  0.20935305    -0.71700
O142        O  0.61888662  0.17888928  0.16936017    -0.71900
O143        O  0.57060050  0.10635950  0.16578883    -0.71700
O144        O  0.65102282  0.15085904  0.21287768    -0.71700
O145        O  0.70468351  0.12174049  0.19203577    -0.71700
O146        O  0.62267229  0.07182722  0.14624145    -0.71700
O147        O  0.66985676  0.14497860  0.14873395    -0.71700
O148        O  0.65851427  0.04601406  0.19012553    -0.71800
V149        V  0.61198964  0.12709807  0.18911193     1.35200
V150        V  0.66287558  0.09637727  0.16985854     1.35200
C151        C  0.62931477  0.04352774  0.20671029     0.77600
C152        C  0.64612703  0.17846641  0.15149100     0.77600
C153        C  0.58324781  0.08444265  0.14710486     0.77500
C154        C  0.69159079  0.14708755  0.20931910     0.77500
O155        O  0.34497569  0.09072215  0.01353378    -0.71700
O156        O  0.44601819  0.09602483  0.05462782    -0.71900
O157        O  0.42730155  0.05968492  0.01054984    -0.71700
O158        O  0.36494476  0.12742012  0.05771241    -0.71700
O159        O  0.34809369  0.06830272  0.07809736    -0.71700
O160        O  0.40379606  0.99998005  0.02782744    -0.71700
O161        O  0.42753875  0.03413371  0.07156780    -0.71700
O162        O  0.32283173  0.03296103  0.03348981    -0.71800
V163        V  0.39521990  0.09226160  0.03435773     1.35200
V164        V  0.37558991  0.03495223  0.05229475     1.35200
C165        C  0.31646462  0.06116334  0.01670857     0.77600
C166        C  0.45412575  0.06573934  0.06995586     0.77600
C167        C  0.42760812  0.01833830  0.01167695     0.77500
C168        C  0.34873495  0.10976658  0.07677825     0.77500
O169        O  0.87550981  0.35377301  0.25898269    -0.71700
O170        O  0.87681543  0.25558192  0.30301895    -0.71900
O171        O  0.83878750  0.27268751  0.25927403    -0.71700
O172        O  0.91419719  0.33535005  0.30267982    -0.71700
O173        O  0.85826524  0.36138410  0.32296753    -0.71700
O174        O  0.78238478  0.29900026  0.27891313    -0.71700
O175        O  0.82055562  0.28269401  0.32237022    -0.71700
O176        O  0.81935824  0.37981949  0.27888414    -0.71800
V177        V  0.87522464  0.30503088  0.28125547     1.35200
V178        V  0.82121897  0.33050533  0.30022588     1.35200
C179        C  0.84729170  0.38391690  0.26168211     0.77600
C180        C  0.84880249  0.25269754  0.32036445     0.77600
C181        C  0.79795947  0.27297434  0.26268820     0.77500
C182        C  0.89925936  0.35715713  0.32087733     0.77500
O183        O  0.13711132  0.33218610  0.45149675    -0.71700
O184        O  0.03779438  0.34045088  0.40873257    -0.71900
O185        O  0.11653936  0.30242635  0.40565587    -0.71700
O186        O  0.05692328  0.36964072  0.45417480    -0.71700
O187        O  0.08295905  0.42935860  0.43804519    -0.71700
O188        O  0.14298734  0.36173047  0.38905595    -0.71700
O189        O  0.06482749  0.39975330  0.39255558    -0.71700
O190        O  0.16296773  0.39222342  0.43554347    -0.71800
V191        V  0.08788758  0.33728283  0.42977076     1.35200
V192        V  0.11330252  0.39458034  0.41425590     1.35200
C193        C  0.16676841  0.36124878  0.45095058     0.77600
C194        C  0.03428100  0.37188582  0.39356144     0.77600
C195        C  0.13820889  0.32046667  0.38854818     0.77500
C196        C  0.05690766  0.41099858  0.45303040     0.77500
O197        O  0.10989251  0.07671104  0.26154152    -0.71700
O198        O  0.12659377  0.18575098  0.29653286    -0.71900
O199        O  0.15567037  0.15137906  0.25373021    -0.71700
O200        O  0.07993444  0.11330954  0.30430708    -0.71700
O201        O  0.13385686  0.08145873  0.32344650    -0.71700
O202        O  0.21167647  0.12830137  0.27487533    -0.71700
O203        O  0.17872063  0.15557685  0.31786581    -0.71700
O204        O  0.16786805  0.05133271  0.27985168    -0.71800
V205        V  0.11902529  0.13092670  0.27927868     1.35200
V206        V  0.17197064  0.10424397  0.29846241     1.35200
C207        C  0.13701556  0.04566891  0.26444360     0.77600
C208        C  0.15500129  0.18857185  0.31377661     0.77600
C209        C  0.19650920  0.15025055  0.25686325     0.77500
C210        C  0.09415368  0.09335795  0.32313255     0.77500
O211        O  0.86346697  0.10238939  0.46138432    -0.71700
O212        O  0.96346994  0.10676998  0.41902005    -0.71900
O213        O  0.88342288  0.14091348  0.41774102    -0.71700
O214        O  0.94580306  0.06821242  0.46249897    -0.71700
O215        O  0.91862899  0.01066708  0.44408098    -0.71700
O216        O  0.86477542  0.08341928  0.39581402    -0.71700
O217        O  0.94268467  0.04589186  0.40106273    -0.71700
O218        O  0.83851334  0.04739758  0.43956023    -0.71800
V219        V  0.91341354  0.10342419  0.43995894     1.35200
V220        V  0.89123511  0.04791155  0.42067405     1.35200
C221        C  0.83309611  0.07484804  0.45718075     0.77600
C222        C  0.96994768  0.07694619  0.40282188     0.77600
C223        C  0.86667225  0.12477681  0.39811674     0.77500
C224        C  0.94446510  0.02684471  0.46020164     0.77500
O225        O  0.60472317  0.35109273  0.71021309    -0.71700
O226        O  0.61083907  0.25193479  0.66618575    -0.71900
O227        O  0.64380596  0.27176969  0.71088227    -0.71700
O228        O  0.57062020  0.33006678  0.66532246    -0.71700
O229        O  0.62750594  0.35416229  0.64530406    -0.71700
O230        O  0.70071474  0.30295855  0.69462927    -0.71700
O231        O  0.67021121  0.27864860  0.65014581    -0.71700
O232        O  0.65858727  0.38101289  0.69006758    -0.71800
V233        V  0.60852598  0.30197198  0.68788977     1.35200
V234        V  0.66320765  0.32898542  0.67054452     1.35200
C235        C  0.63009947  0.38350745  0.70705613     0.77600
C236        C  0.64229338  0.24810967  0.65092343     0.77600
C237        C  0.68484763  0.27551747  0.70980085     0.77500
C238        C  0.58644299  0.34960085  0.64674426     0.77500
O239        O  0.35118854  0.32888798  0.51218551    -0.71700
O240        O  0.45193680  0.33379775  0.55440846    -0.71900
O241        O  0.37395588  0.29384362  0.55626427    -0.71700
O242        O  0.43063257  0.36803593  0.51034834    -0.71700
O243        O  0.40394833  0.42547393  0.52911815    -0.71700
O244        O  0.34838402  0.35060803  0.57631901    -0.71700
O245        O  0.42501538  0.39130903  0.57301264    -0.71700
O246        O  0.32466887  0.38553314  0.53175981    -0.71800
V247        V  0.40121389  0.33226284  0.53358022     1.35200
V248        V  0.37565833  0.38712432  0.55202006     1.35200
C249        C  0.32050015  0.35645713  0.51490277     0.77600
C250        C  0.45536148  0.36350571  0.57103523     0.77600
C251        C  0.35373134  0.30941237  0.57482869     0.77500
C252        C  0.42889054  0.40929808  0.51255063     0.77500
O253        O  0.37564094  0.06700643  0.70519865    -0.71700
O254        O  0.37035323  0.17062011  0.66526876    -0.71900
O255        O  0.33539439  0.14552715  0.70847446    -0.71700
O256        O  0.41182160  0.09334048  0.66194587    -0.71700
O257        O  0.35681174  0.06610666  0.64117411    -0.71700
O258        O  0.27933743  0.11946456  0.68827957    -0.71700
O259        O  0.31519909  0.14260839  0.64510930    -0.71700
O260        O  0.31933743  0.04082404  0.68515671    -0.71800
V261        V  0.37224900  0.11836011  0.68487956     1.35200
V262        V  0.31880927  0.09239515  0.66541087     1.35200
C263        C  0.34745895  0.03673637  0.70230252     0.77600
C264        C  0.34162585  0.17409414  0.64827322     0.77600
C265        C  0.29448889  0.14333715  0.70578176     0.77500
C266        C  0.39763501  0.07299406  0.64298618     0.77500
O267        O  0.64152504  0.09616874  0.51296939    -0.71700
O268        O  0.54030194  0.09085589  0.55498123    -0.71900
O269        O  0.61868384  0.13024204  0.55747029    -0.71700
O270        O  0.56130738  0.05759478  0.51036211    -0.71700
O271        O  0.58706607  0.99959747  0.52837249    -0.71700
O272        O  0.64466013  0.07289093  0.57628655    -0.71700
O273        O  0.56743412  0.03329553  0.57285605    -0.71700
O274        O  0.66712210  0.03809236  0.53110036    -0.71800
V275        V  0.59119962  0.09256317  0.53415884     1.35200
V276        V  0.61645069  0.03709527  0.55161905     1.35200
C277        C  0.67173884  0.06790053  0.51504819     0.77600
C278        C  0.53714904  0.06122073  0.57139229     0.77600
C279        C  0.63901657  0.11406644  0.57565988     0.77500
C280        C  0.56175108  0.01635465  0.51230634     0.77500
O281        O  0.10642846  0.34264053  0.76062527    -0.71700
O282        O  0.11122898  0.24339023  0.80366434    -0.71900
O283        O  0.07185525  0.32186367  0.80504461    -0.71700
O284        O  0.14478146  0.26293227  0.75922454    -0.71700
O285        O  0.20224796  0.28953823  0.77786088    -0.71700
O286        O  0.12845856  0.34994867  0.82398255    -0.71700
O287        O  0.16780322  0.27213106  0.82222428    -0.71700
O288        O  0.16427175  0.36925629  0.77898553    -0.71800
V289        V  0.10966163  0.29343137  0.78243438     1.35200
V290        V  0.16456599  0.31998091  0.80028522     1.35200
C291        C  0.13520292  0.37256155  0.76234083     0.77600
C292        C  0.14049185  0.24116594  0.82040445     0.77600
C293        C  0.08743036  0.34418706  0.82291207     0.77500
C294        C  0.18582685  0.26437506  0.76134501     0.77500
O295        O  0.85088883  0.33078359  0.95573611    -0.71700
O296        O  0.94975012  0.33568243  0.91226804    -0.71900
O297        O  0.93047378  0.36967333  0.95691856    -0.71700
O298        O  0.87145203  0.29603443  0.91110623    -0.71700
O299        O  0.84407316  0.35295517  0.89250870    -0.71700
O300        O  0.90406462  0.42726967  0.93886266    -0.71700
O301        O  0.92154702  0.39258602  0.89419980    -0.71700
O302        O  0.82436685  0.38847904  0.93767864    -0.71800
V303        V  0.89994572  0.33417239  0.93374747     1.35200
V304        V  0.87372770  0.38922227  0.91631817     1.35200
C305        C  0.82073948  0.35913996  0.95407724     0.77600
C306        C  0.95198668  0.36482640  0.89556348     0.77600
C307        C  0.92953829  0.41092929  0.95495234     0.77500
C308        C  0.84947679  0.31178919  0.89341189     0.77500
O309        O  0.87114782  0.07100795  0.76142813    -0.71700
O310        O  0.86371291  0.17436206  0.80209216    -0.71900
O311        O  0.90740668  0.09899806  0.80476633    -0.71700
O312        O  0.82891312  0.14829120  0.75906035    -0.71700
O313        O  0.77385241  0.12052367  0.77890997    -0.71700
O314        O  0.85370384  0.07077206  0.82581461    -0.71700
O315        O  0.80926819  0.14540841  0.82202816    -0.71700
O316        O  0.81738628  0.04257080  0.78232494    -0.71800
V317        V  0.86674882  0.12223872  0.78212889     1.35200
V318        V  0.81453302  0.09491310  0.80167595     1.35200
C319        C  0.84558793  0.03895930  0.76524472     0.77600
C320        C  0.83511367  0.17727234  0.81912296     0.77600
C321        C  0.89402332  0.08005441  0.82410968     0.77500
C322        C  0.78815709  0.14612575  0.76223068     0.77500
O323        O  0.12926246  0.09002044  0.95977181    -0.71700
O324        O  0.02990268  0.09302685  0.91736673    -0.71900
O325        O  0.04827520  0.05558434  0.96081396    -0.71700
O326        O  0.10971553  0.12779002  0.91615323    -0.71700
O327        O  0.12884721  0.07033930  0.89443451    -0.71700
O328        O  0.07528507  0.99761618  0.94280584    -0.71700
O329        O  0.05074003  0.03208583  0.89959313    -0.71700
O330        O  0.15492925  0.03495008  0.93840335    -0.71800
V331        V  0.07992111  0.09043434  0.93825986     1.35200
V332        V  0.10237112  0.03479286  0.91927888     1.35200
C333        C  0.15958994  0.06257369  0.95602089     0.77600
C334        C  0.02328029  0.06287215  0.90139826     0.77600
C335        C  0.04987849  0.01428360  0.95887533     0.77500
C336        C  0.12697405  0.11170361  0.89676527     0.77500
O337        O  0.37150946  0.57600688  0.26169400    -0.71700
O338        O  0.36845052  0.67677808  0.30468709    -0.71900
O339        O  0.40813165  0.59859381  0.30563215    -0.71700
O340        O  0.33263095  0.65541257  0.26073423    -0.71700
O341        O  0.27617643  0.62968154  0.28036193    -0.71700
O342        O  0.35251929  0.57066102  0.32514947    -0.71700
O343        O  0.31316913  0.64841965  0.32417531    -0.71700
O344        O  0.31453857  0.54984195  0.28065192    -0.71800
V345        V  0.36908265  0.62596959  0.28347998     1.35200
V346        V  0.31518339  0.59985719  0.30207898     1.35200
C347        C  0.34301787  0.54594733  0.26370768     0.77600
C348        C  0.34029582  0.67944809  0.32197314     0.77600
C349        C  0.39344085  0.57663467  0.32361051     0.77500
C350        C  0.29172647  0.65424396  0.26360644     0.77500
O351        O  0.63222697  0.59565873  0.45566949    -0.71700
O352        O  0.52861336  0.58848533  0.41559925    -0.71900
O353        O  0.55259655  0.55644113  0.45990571    -0.71700
O354        O  0.60632462  0.62819312  0.41147190    -0.71700
O355        O  0.63188718  0.57032255  0.39241236    -0.71700
O356        O  0.57737358  0.49817736  0.44108977    -0.71700
O357        O  0.55516762  0.53078320  0.39693703    -0.71700
O358        O  0.65692630  0.53724840  0.43701311    -0.71800
V359        V  0.58064999  0.59104724  0.43545005     1.35200
V360        V  0.60516957  0.53524184  0.41744109     1.35200
C361        C  0.66265416  0.56777488  0.45285603     0.77600
C362        C  0.52498982  0.55874634  0.39898776     0.77600
C363        C  0.55342518  0.51509352  0.45788527     0.77500
C364        C  0.62581844  0.61141622  0.39299131     0.77500
O365        O  0.35377393  0.82922944  0.46181536    -0.71700
O366        O  0.45218977  0.83665231  0.41816553    -0.71900
O367        O  0.43284930  0.86947375  0.46315485    -0.71700
O368        O  0.37493893  0.79566493  0.41689999    -0.71700
O369        O  0.34827584  0.85249728  0.39792683    -0.71700
O370        O  0.40369934  0.92691168  0.44624518    -0.71700
O371        O  0.42395785  0.89478536  0.40146619    -0.71700
O372        O  0.32525283  0.88538176  0.44325458    -0.71800
V373        V  0.40271895  0.83390585  0.43980078     1.35200
V374        V  0.37548494  0.88880681  0.42275632     1.35200
C375        C  0.32223294  0.85590921  0.45962213     0.77600
C376        C  0.45417661  0.86675214  0.40200010     0.77600
C377        C  0.43025653  0.91070828  0.46185138     0.77500
C378        C  0.35415639  0.81135636  0.39872195     0.77500
O379        O  0.59999167  0.85406895  0.26300038    -0.71700
O380        O  0.60532062  0.74949466  0.30178401    -0.71900
O381        O  0.56674343  0.82782614  0.30678621    -0.71700
O382        O  0.63852878  0.77413327  0.25789252    -0.71700
O383        O  0.69641290  0.79866035  0.27699955    -0.71700
O384        O  0.62436907  0.85228028  0.32634508    -0.71700
O385        O  0.66303710  0.77462821  0.32068029    -0.71700
O386        O  0.65810275  0.87830099  0.28210366    -0.71800
V387        V  0.60379093  0.80203811  0.28262768     1.35200
V388        V  0.65934130  0.82581303  0.30102296     1.35200
C389        C  0.62837058  0.88405170  0.26600667     0.77600
C390        C  0.63491626  0.74443852  0.31810741     0.77600
C391        C  0.58331422  0.84718739  0.32547374     0.77500
C392        C  0.67972329  0.77512371  0.25983792     0.77500
O393        O  0.09863689  0.85189152  0.20971919    -0.71700
O394        O  0.11182089  0.74645965  0.17048297    -0.71900
O395        O  0.14317639  0.77582556  0.21413187    -0.71700
O396        O  0.06579220  0.82029214  0.16602449    -0.71700
O397        O  0.11944071  0.85271072  0.14694047    -0.71700
O398        O  0.19854147  0.80171007  0.19360803    -0.71700
O399        O  0.16416176  0.77813858  0.15013014    -0.71700
O400        O  0.15555907  0.87867818  0.19099554    -0.71800
V401        V  0.10580312  0.79947917  0.18982644     1.35200
V402        V  0.15829542  0.82763648  0.17094250     1.35200
C403        C  0.12618443  0.88286787  0.20733415     0.77600
C404        C  0.13994156  0.74514681  0.15305607     0.77600
C405        C  0.18396361  0.77817290  0.21112934     0.77500
C406        C  0.07947618  0.84157128  0.14756104     0.77500
O407        O  0.84488562  0.83890360  0.01119024    -0.71700
O408        O  0.94211198  0.83265613  0.05514136    -0.71900
O409        O  0.86190267  0.79851429  0.05452361    -0.71700
O410        O  0.92602458  0.87232846  0.01220536    -0.71700
O411        O  0.89727251  0.92966441  0.03000628    -0.71700
O412        O  0.84416116  0.85482399  0.07757764    -0.71700
O413        O  0.92199320  0.89381622  0.07288503    -0.71700
O414        O  0.81754165  0.89119672  0.03423105    -0.71800
V415        V  0.89309144  0.83668761  0.03355792     1.35200
V416        V  0.87030786  0.89143745  0.05318740     1.35200
C417        C  0.81406546  0.86541823  0.01567836     0.77600
C418        C  0.94910046  0.86267658  0.07116958     0.77600
C419        C  0.84542360  0.81362094  0.07438195     0.77500
C420        C  0.92373434  0.91354585  0.01427962     0.77500
O421        O  0.13370974  0.59303752  0.01693154    -0.71700
O422        O  0.02855235  0.58610938  0.05517244    -0.71900
O423        O  0.10658118  0.62530433  0.06099727    -0.71700
O424        O  0.05436695  0.55418729  0.01123375    -0.71700
O425        O  0.07876026  0.49590967  0.02948793    -0.71700
O426        O  0.13075878  0.56750406  0.08009559    -0.71700
O427        O  0.05360053  0.52800097  0.07346964    -0.71700
O428        O  0.15799240  0.53475321  0.03538563    -0.71800
V429        V  0.08151764  0.58853251  0.03636879     1.35200
V430        V  0.10513285  0.53266120  0.05412529     1.35200
C431        C  0.16394636  0.56507249  0.01973561     0.77600
C432        C  0.02323299  0.55568933  0.07086423     0.77600
C433        C  0.12577395  0.60872924  0.07951905     0.77500
C434        C  0.05510917  0.51284231  0.01273119     0.77500
O435        O  0.86634664  0.57234564  0.20368290    -0.71700
O436        O  0.85928566  0.67296420  0.16191163    -0.71900
O437        O  0.82642717  0.65171780  0.20621105    -0.71700
O438        O  0.89989617  0.59535636  0.15957300    -0.71700
O439        O  0.84359047  0.56693249  0.14048959    -0.71700
O440        O  0.76902457  0.62530023  0.18745606    -0.71700
O441        O  0.80295612  0.64410109  0.14320069    -0.71700
O442        O  0.80855228  0.54550517  0.18539369    -0.71800
V443        V  0.86182402  0.62238390  0.18257736     1.35200
V444        V  0.80710658  0.59565813  0.16464245     1.35200
C445        C  0.83847829  0.54166220  0.20152844     0.77600
C446        C  0.83007819  0.67515900  0.14514312     0.77600
C447        C  0.78535014  0.65048568  0.20403370     0.77500
C448        C  0.88460708  0.57301398  0.14165579     0.77500
C449        C  0.98385398  0.55334530  0.08698198     0.00000
C450        C  0.98878447  0.53564630  0.11092332    -0.11900
C451        C  0.95520763  0.53845111  0.12850022     0.02200
C452        C  0.91494959  0.55782477  0.12203432    -0.00100
C453        C  0.90832683  0.57180148  0.09740496    -0.11800
C454        C  0.94253079  0.57007246  0.07990517     0.02100
H455        H  0.01991410  0.52178086  0.11648262     0.15100
H456        H  0.87751905  0.58701354  0.09234078     0.15100
C457        C  0.93451421  0.58606962  0.05503402     0.36700
C458        C  0.96369475  0.52323947  0.15349560     0.36600
N459        N  0.92804522  0.59877050  0.03507430    -0.43600
N460        N  0.97075614  0.51127243  0.17353220    -0.43600
C461        C  0.83245935  0.78285132  0.09402730     0.00000
C462        C  0.81394939  0.74264362  0.08667704    -0.11900
C463        C  0.81159022  0.70756785  0.10320004     0.02200
C464        C  0.82800171  0.71254753  0.12780401    -0.00100
C465        C  0.84444045  0.75355625  0.13554259    -0.11800
C466        C  0.84678514  0.78867521  0.11892607     0.02100
H467        H  0.80353017  0.73784263  0.06744417     0.15100
H468        H  0.85684224  0.75779253  0.15441858     0.15100
C469        C  0.86778556  0.82877574  0.12727859     0.36700
C470        C  0.79551760  0.66602982  0.09359330     0.36600
N471        N  0.88480396  0.86079428  0.13397575    -0.43600
N472        N  0.78276806  0.63279537  0.08578891    -0.43600
C473        C  0.04974166  0.84795169  0.12626301     0.00000
C474        C  0.04123338  0.89000198  0.11697036    -0.11900
C475        C  0.00932809  0.89592270  0.09834041     0.02200
C476        C  0.98619693  0.85917927  0.08868005    -0.00100
C477        C  0.99674983  0.81717106  0.09706220    -0.11800
C478        C  0.02783481  0.81126364  0.11570613     0.02100
H479        H  0.05844376  0.91816123  0.12473868     0.15100
H480        H  0.97937844  0.78874776  0.08967615     0.15100
C481        C  0.03618715  0.76680032  0.12359271     0.36700
C482        C  0.00166881  0.93961345  0.08909376     0.36600
N483        N  0.04185682  0.73078639  0.12948465    -0.43600
N484        N  0.99583052  0.97464806  0.08159283    -0.43600
C485        C  0.13936344  0.63799282  0.10015561     0.00000
C486        C  0.15794681  0.67831613  0.09378259    -0.11900
C487        C  0.16059458  0.71270900  0.11106516     0.02200
C488        C  0.14361302  0.70730645  0.13549342    -0.00100
C489        C  0.12778952  0.66576963  0.14240137    -0.11800
C490        C  0.12602346  0.63097333  0.12501811     0.02100
H491        H  0.16835798  0.68373972  0.07467624     0.15100
H492        H  0.11553350  0.66084466  0.16116459     0.15100
C493        C  0.10783581  0.58947525  0.13272752     0.36700
C494        C  0.17812005  0.75390664  0.10230552     0.36600
N495        N  0.09362636  0.55615092  0.13909116    -0.43600
N496        N  0.19228398  0.78676912  0.09518324    -0.43600
C497        C  0.70750142  0.74596017  0.24416230     0.00000
C498        C  0.74752683  0.73163607  0.25407874    -0.11900
C499        C  0.77256998  0.69953959  0.24190512     0.02200
C500        C  0.75775643  0.68083717  0.21911081    -0.00100
C501        C  0.71799637  0.69560093  0.20899317    -0.11800
C502        C  0.69307721  0.72800464  0.22113110     0.02100
H503        H  0.75881395  0.74457608  0.27190979     0.15100
H504        H  0.70690229  0.68275262  0.19110477     0.15100
C505        C  0.65371161  0.74323333  0.20905358     0.36700
C506        C  0.81278905  0.68583279  0.25369346     0.36600
N507        N  0.62230732  0.75559403  0.19928441    -0.43600
N508        N  0.84501693  0.67501992  0.26319236    -0.43600
C509        C  0.48967760  0.86818003  0.38330973     0.00000
C510        C  0.53051716  0.84987030  0.38910524    -0.11900
C511        C  0.56316753  0.84598189  0.37091812     0.02200
C512        C  0.55484484  0.86021067  0.34635513    -0.00100
C513        C  0.51487341  0.88026788  0.34084050    -0.11800
C514        C  0.48248115  0.88479113  0.35901698     0.02100
H515        H  0.53647774  0.83727684  0.40770307     0.15100
H516        H  0.50824765  0.89081483  0.32188349     0.15100
C517        C  0.44122235  0.90375101  0.35151391     0.36700
C518        C  0.60332448  0.82385690  0.37740361     0.36600
N519        N  0.40823340  0.91898553  0.34545755    -0.43600
N520        N  0.63540226  0.80600487  0.38266431    -0.43600
C521        C  0.63539913  0.63906431  0.37135730     0.00000
C522        C  0.60538642  0.63801276  0.35155403    -0.11900
C523        C  0.60532634  0.67076313  0.33336171     0.02200
C524        C  0.63634912  0.70540391  0.33472340    -0.00100
C525        C  0.66833183  0.70432242  0.35376405    -0.11800
C526        C  0.66772076  0.67187550  0.37212866     0.02100
H527        H  0.58002881  0.61292105  0.35118125     0.15100
H528        H  0.69294145  0.73000904  0.35504456     0.15100
C529        C  0.69981483  0.67340807  0.39192792     0.36700
C530        C  0.57170595  0.66865328  0.31440646     0.36600
N531        N  0.72569100  0.67449784  0.40772335    -0.43600
N532        N  0.54451993  0.66666423  0.29936184    -0.43600
C533        C  0.26345670  0.68414615  0.24926274     0.00000
C534        C  0.22564691  0.70067680  0.26078469    -0.11900
C535        C  0.20055730  0.73327873  0.24945311     0.02200
C536        C  0.21308631  0.74983016  0.22594384    -0.00100
C537        C  0.25100712  0.73341368  0.21448157    -0.11800
C538        C  0.27602825  0.70073659  0.22578875     0.02100
H539        H  0.21626461  0.68899301  0.27909406     0.15100
H540        H  0.26024236  0.74484201  0.19609498     0.15100
C541        C  0.31344440  0.68377904  0.21240045     0.36700
C542        C  0.16269292  0.74966925  0.26266657     0.36600
N543        N  0.34333388  0.67017363  0.20160297    -0.43600
N544        N  0.13239333  0.76274247  0.27330242    -0.43600
C545        C  0.42383304  0.56253307  0.34334199     0.00000
C546        C  0.41319029  0.57179838  0.36834997    -0.11900
C547        C  0.44522656  0.56989627  0.38712215     0.02200
C548        C  0.48841010  0.55773456  0.38091367    -0.00100
C549        C  0.49803352  0.54545523  0.35619263    -0.11800
C550        C  0.46642007  0.54813123  0.33743924     0.02100
H551        H  0.38058794  0.58319050  0.37299402     0.15100
H552        H  0.53100794  0.53563540  0.35123103     0.15100
C553        C  0.47883824  0.53699260  0.31215241     0.36700
C554        C  0.43302508  0.58057511  0.41246561     0.36600
N555        N  0.48880012  0.52812408  0.29189853    -0.43600
N556        N  0.42316331  0.58898220  0.43279545    -0.43600
C557        C  0.33939305  0.71654839  0.34014039     0.00000
C558        C  0.32064228  0.70892141  0.36366489    -0.11900
C559        C  0.32219196  0.74076910  0.38257073     0.02200
C560        C  0.34160698  0.78186398  0.37797948    -0.00100
C561        C  0.35792163  0.79078137  0.35407134    -0.11800
C562        C  0.35749114  0.75839459  0.33524015     0.02100
H563        H  0.30642368  0.67712953  0.36778030     0.15100
H564        H  0.37372690  0.82208414  0.35059918     0.15100
C565        C  0.37665157  0.76880329  0.31140557     0.36700
C566        C  0.30484263  0.72996212  0.40680217     0.36600
N567        N  0.39218863  0.77723829  0.29235673    -0.43600
N568        N  0.29095988  0.72108786  0.42618758    -0.43600
C569        C  0.95395106  0.94105070  0.99966629     0.00000
C570        C  0.97704512  0.92085522  0.98003585    -0.11900
C571        C  0.00986992  0.94306984  0.96724599     0.02200
C572        C  0.01994093  0.98701097  0.97383162    -0.00100
C573        C  0.99692591  0.00722398  0.99350921    -0.11800
C574        C  0.96428575  0.98482165  0.00644695     0.02100
H575        H  0.96974372  0.88713477  0.97469354     0.15100
H576        H  0.00422433  0.04096903  0.99879007     0.15100
C577        C  0.94305223  0.00747356  0.02688906     0.36700
C578        C  0.03169393  0.91983236  0.94721155     0.36600
N579        N  0.92620261  0.02579548  0.04326376    -0.43600
N580        N  0.04904802  0.90099391  0.93120143    -0.43600
C581        C  0.92459483  0.07493784  0.84517338     0.00000
C582        C  0.92853871  0.03488970  0.85774479    -0.11900
C583        C  0.95987365  0.03008173  0.87679828     0.02200
C584        C  0.98666408  0.06610830  0.88369639    -0.00100
C585        C  0.98085326  0.10649869  0.87205179    -0.11800
C586        C  0.95060133  0.11117903  0.85286514     0.02100
H587        H  0.90808993  0.00723946  0.85226876     0.15100
H588        H  0.00132699  0.13429911  0.87735135     0.05500
C589        C  0.94708031  0.15398036  0.84157104     0.36700
C590        C  0.96329738  0.98853124  0.88939660     0.36600
N591        N  0.94503231  0.18848023  0.83275907    -0.43600
N592        N  0.96586941  0.95532403  0.89963174    -0.43600
C593        C  0.96027319  0.43822288  0.97005505     0.00000
C594        C  0.99130375  0.41647885  0.98493342    -0.11900
C595        C  0.02352990  0.43953885  0.99818502     0.02200
C596        C  0.02559456  0.48583392  0.99669177    -0.00100
C597        C  0.99478420  0.50760861  0.98164060    -0.11800
C598        C  0.96222062  0.48451100  0.96857687     0.02100
H599        H  0.99074329  0.38093337  0.98620685     0.15100
H600        H  0.99520687  0.54317450  0.98054132     0.15100
C601        C  0.93101349  0.50954538  0.95429935     0.36700
C602        C  0.05338170  0.41441295  0.01332933     0.36600
N603        N  0.90598543  0.52978260  0.94297284    -0.43600
N604        N  0.07703574  0.39406687  0.02551266    -0.43600
C605        C  0.83264358  0.21553073  0.83635094     0.00000
C606        C  0.81302735  0.20934796  0.85981001    -0.11900
C607        C  0.81467461  0.24206539  0.87822384     0.02200
C608        C  0.83523714  0.28236068  0.87311986    -0.00100
C609        C  0.85164114  0.29005150  0.84914532    -0.11800
C610        C  0.85098808  0.25697469  0.83081299     0.02100
H611        H  0.79828669  0.17791236  0.86435125     0.15100
H612        H  0.86807018  0.32098238  0.84528840     0.15100
C613        C  0.87052357  0.26616846  0.80691234     0.36700
C614        C  0.79641778  0.23307810  0.90250444     0.36600
N615        N  0.88636138  0.27367195  0.78781584    -0.43600
N616        N  0.78174755  0.22588209  0.92194169    -0.43600
C617        C  0.98854033  0.36601149  0.87752170     0.00000
C618        C  0.03072464  0.35388123  0.88523927    -0.11900
C619        C  0.06526791  0.35119214  0.86808609     0.02200
C620        C  0.05737342  0.35965120  0.84259962    -0.00100
C621        C  0.01588150  0.37415486  0.83521253    -0.11800
C622        C  0.98167851  0.37779028  0.85233535     0.02100
H623        H  0.03651236  0.34562596  0.90463977     0.15100
H624        H  0.00955386  0.38052862  0.81561436     0.15100
C625        C  0.93925432  0.39062263  0.84298094     0.36700
C626        C  0.10754707  0.33689608  0.87686098     0.36600
N627        N  0.90544330  0.40106263  0.83530732    -0.43600
N628        N  0.14143348  0.32577130  0.88408604    -0.43600
C629        C  0.13975028  0.14112450  0.87636966     0.00000
C630        C  0.12627467  0.13039656  0.85197140    -0.11900
C631        C  0.12699760  0.16196598  0.83308159     0.02200
C632        C  0.14230171  0.20481374  0.83849452    -0.00100
C633        C  0.15908798  0.21415164  0.86238539    -0.11800
C634        C  0.15735275  0.18312662  0.88133837     0.02100
H635        H  0.11247292  0.09817215  0.84802666     0.15100
H636        H  0.17192118  0.24663023  0.86667515     0.15100
C637        C  0.17266620  0.19577901  0.90589020     0.36700
C638        C  0.11175431  0.14956783  0.80848800     0.36600
N639        N  0.18488465  0.20630480  0.92550588    -0.43600
N640        N  0.09961545  0.13950792  0.78877129    -0.43600
C641        C  0.52986188  0.98896279  0.49811074     0.00000
C642        C  0.51834916  0.94779876  0.50775965    -0.11900
C643        C  0.48440973  0.92283025  0.49723277     0.02200
C644        C  0.46113298  0.93876134  0.47632790    -0.00100
C645        C  0.47234987  0.98008965  0.46679331    -0.11800
C646        C  0.50636708  0.00505924  0.47730893     0.02100
H647        H  0.53514183  0.93542063  0.52409425     0.15100
H648        H  0.45554792  0.99237357  0.45043845     0.15100
C649        C  0.51698433  0.04647865  0.46582991     0.36700
C650        C  0.47390494  0.88133096  0.50866177     0.36600
N651        N  0.52543155  0.07961874  0.45656273    -0.43600
N652        N  0.46562648  0.84808715  0.51785812    -0.43600
C653        C  0.26565334  0.17132212  0.72132932     0.00000
C654        C  0.22479968  0.18352359  0.71162459    -0.11900
C655        C  0.19882674  0.21485191  0.72375998     0.02200
C656        C  0.21357988  0.23456278  0.74628366    -0.00100
C657        C  0.25417703  0.22197765  0.75612928    -0.11800
C658        C  0.28007323  0.19058825  0.74405284     0.02100
H659        H  0.21364821  0.16966371  0.69398828     0.15100
H660        H  0.26538164  0.23592759  0.77373512     0.15100
C661        C  0.32081960  0.17838785  0.75580275     0.36700
C662        C  0.15792906  0.22693518  0.71214859     0.36600
N663        N  0.35340812  0.16875138  0.76531897    -0.43600
N664        N  0.12521018  0.23649893  0.70275345    -0.43600
C665        C  0.42901996  0.06111849  0.62309717     0.00000
C666        C  0.47014707  0.04556628  0.63041825    -0.11900
C667        C  0.50520983  0.04420106  0.61373807     0.02200
C668        C  0.49973280  0.05931361  0.58900372    -0.00100
C669        C  0.45804334  0.07326309  0.58133405    -0.11800
C670        C  0.42264626  0.07383434  0.59805373     0.02100
H671        H  0.47544454  0.03627072  0.64971682     0.15100
H672        H  0.45324179  0.08435624  0.56232952     0.15100
C673        C  0.38102500  0.09026696  0.58946904     0.36700
C674        C  0.54705773  0.02985572  0.62321547     0.36600
N675        N  0.34767711  0.10325012  0.58244210    -0.43600
N676        N  0.58046387  0.01829429  0.63093890    -0.43600
C677        C  0.45846502  0.43738876  0.49757080     0.00000
C678        C  0.47452561  0.47654614  0.50830197    -0.11900
C679        C  0.50689113  0.50143307  0.49637977     0.02200
C680        C  0.52361084  0.48749879  0.47302425    -0.00100
C681        C  0.50746455  0.44839341  0.46230627    -0.11800
C682        C  0.47526302  0.42346529  0.47423421     0.02100
H683        H  0.46288131  0.48702043  0.52649093     0.15100
H684        H  0.51911511  0.43779999  0.44413712     0.15100
C685        C  0.45932740  0.38437975  0.46167248     0.36700
C686        C  0.52348707  0.54009835  0.50906472     0.36600
N687        N  0.44662743  0.35310761  0.45153595    -0.43600
N688        N  0.53686545  0.57091459  0.51936911    -0.43600
C689        C  0.34105999  0.27965795  0.59516348     0.00000
C690        C  0.35861923  0.28715274  0.61908147    -0.11900
C691        C  0.35810360  0.25401285  0.63717446     0.02200
C692        C  0.33932491  0.21260400  0.63140214    -0.00100
C693        C  0.31854252  0.20684323  0.60813138    -0.11800
C694        C  0.31970563  0.23957652  0.59003657     0.02100
H695        H  0.37527276  0.31795274  0.62311979     0.15100
H696        H  0.30283745  0.17582141  0.60351956     0.15100
C697        C  0.29950906  0.23086594  0.56611445     0.36700
C698        C  0.37730654  0.26340227  0.66127845     0.36600
N699        N  0.28306528  0.22367587  0.54703853    -0.43600
N700        N  0.39258807  0.27117238  0.68060653    -0.43600
C701        C  0.75969153  0.17675135  0.74812265     0.00000
C702        C  0.77967002  0.20344621  0.73004749    -0.11900
C703        C  0.75703952  0.23744385  0.71842228     0.02200
C704        C  0.71269293  0.24511512  0.72437716    -0.00100
C705        C  0.69263623  0.21858127  0.74249201    -0.11800
C706        C  0.71554024  0.18488867  0.75440591     0.02100
H707        H  0.81373070  0.19835624  0.72513411     0.15100
H708        H  0.65855339  0.22385180  0.74729463     0.15100
C709        C  0.69286636  0.16009039  0.77325049     0.36700
C710        C  0.78038619  0.26315033  0.70021764     0.36600
N711        N  0.67448940  0.14043210  0.78837226    -0.43600
N712        N  0.79932353  0.28368840  0.68570722    -0.43600
C713        C  0.55719664  0.36241121  0.62630235     0.00000
C714        C  0.56609782  0.34628633  0.60221872    -0.11900
C715        C  0.53394761  0.34711895  0.58353333     0.02200
C716        C  0.49240576  0.36519336  0.58884279    -0.00100
C717        C  0.48495570  0.38426815  0.61247030    -0.11800
C718        C  0.51669136  0.38258296  0.63120265     0.02100
H719        H  0.59713808  0.33037540  0.59847092     0.15100
H720        H  0.45344746  0.39872380  0.61678444     0.15100
C721        C  0.50653857  0.40070088  0.65552626     0.36700
C722        C  0.54430232  0.32860906  0.55935672     0.36600
N723        N  0.49844180  0.41519484  0.67501705    -0.43600
N724        N  0.55268264  0.31371495  0.54000053    -0.43600
C725        C  0.64638302  0.20998771  0.63360003     0.00000
C726        C  0.67189358  0.21507468  0.61193641    -0.11900
C727        C  0.67322818  0.18229455  0.59349218     0.02200
C728        C  0.65003171  0.14287694  0.59689744    -0.00100
C729        C  0.62724640  0.13625673  0.61924649    -0.11800
C730        C  0.62468981  0.16952618  0.63743298     0.02100
H731        H  0.68909987  0.24566993  0.60870545     0.15100
H732        H  0.60849482  0.10634934  0.62163572     0.15100
C733        C  0.59830440  0.16158187  0.65926014     0.36700
C734        C  0.69716625  0.19044935  0.57077927     0.36600
N735        N  0.57689070  0.15512450  0.67664086    -0.43600
N736        N  0.71633961  0.19701002  0.55258260    -0.43600
C737        C  0.79197851  0.07418742  0.47228758     0.00000
C738        C  0.76931352  0.03419591  0.47479896    -0.11900
C739        C  0.73024758  0.03155773  0.48847392     0.02200
C740        C  0.71209532  0.06971195  0.49951772    -0.00100
C741        C  0.73417637  0.10987838  0.49670345    -0.11800
C742        C  0.77402666  0.11232863  0.48363147     0.02100
H743        H  0.78242890  0.00459794  0.46625830     0.15100
H744        H  0.72079592  0.13931437  0.50529212     0.15100
C745        C  0.79531381  0.15456307  0.48197513     0.36700
C746        C  0.70882894  0.98937492  0.49031069     0.36600
N747        N  0.81236935  0.18847013  0.48087921    -0.43600
N748        N  0.69172247  0.95553713  0.49175284    -0.43600
C749        C  0.12664091  0.92297258  0.22338432     0.00000
C750        C  0.16770531  0.94105471  0.22935813    -0.11900
C751        C  0.17158835  0.98053510  0.24266697     0.02200
C752        C  0.13365432  0.00363277  0.25018105    -0.00100
C753        C  0.09236540  0.98553748  0.24441871    -0.11800
C754        C  0.08859072  0.94521415  0.23141810     0.02100
H755        H  0.19726513  0.92425902  0.22341698     0.15100
H756        H  0.06300787  0.00268997  0.25030190     0.15100
C757        C  0.04550984  0.92822623  0.22590419     0.36700
C758        C  0.21517447  0.99720356  0.24744423     0.36600
N759        N  0.01089677  0.91462499  0.22157332    -0.43600
N760        N  0.25015320  0.01034694  0.25124604    -0.43600
C761        C  0.00615643  0.08037730  0.38483779     0.00000
C762        C  0.01348466  0.12138885  0.37406351    -0.11900
C763        C  0.04226374  0.12587050  0.35412030     0.02200
C764        C  0.06549253  0.08890308  0.34500519    -0.00100
C765        C  0.06019597  0.04821816  0.35666357    -0.11800
C766        C  0.03009333  0.04352427  0.37624499     0.02100
H767        H  0.99498658  0.14974332  0.38044156     0.15100
H768        H  0.07828629  0.01991461  0.34989959     0.15100
C769        C  0.02437899  0.00079295  0.38723926     0.36700
C770        C  0.04687401  0.16896162  0.34328087     0.36600
N771        N  0.01976860  0.96654965  0.39607465    -0.43600
N772        N  0.04993045  0.20357796  0.33469696    -0.43600
C773        C  0.20501384  0.35956326  0.46797651     0.00000
C774        C  0.22754991  0.31984528  0.47114516    -0.11900
C775        C  0.26535245  0.31780040  0.48610468     0.02200
C776        C  0.28075055  0.35597208  0.49868484    -0.00100
C777        C  0.25717224  0.39531922  0.49599406    -0.11800
C778        C  0.21993729  0.39744885  0.48077408     0.02100
H779        H  0.21609045  0.29053954  0.46152562     0.15100
H780        H  0.26807807  0.42483599  0.50562843     0.15100
C781        C  0.19668612  0.43863897  0.47931883     0.36700
C782        C  0.28701310  0.27594597  0.48844809     0.36600
N783        N  0.17789856  0.47154490  0.47821036    -0.43600
N784        N  0.30426765  0.24229667  0.49018711    -0.43600
C785        C  0.15896187  0.22752049  0.33046198     0.00000
C786        C  0.17821304  0.22118232  0.35403439    -0.11900
C787        C  0.17557574  0.25329303  0.37266025     0.02200
C788        C  0.15418110  0.29312050  0.36779251    -0.00100
C789        C  0.13904576  0.30166769  0.34354943    -0.11800
C790        C  0.14116184  0.26911526  0.32483677     0.02100
H791        H  0.19290985  0.18989647  0.35862352     0.15100
H792        H  0.12253998  0.33239368  0.33976026     0.15100
C793        C  0.12382534  0.27885378  0.30042939     0.36700
C794        C  0.19290468  0.24368862  0.39711513     0.36600
N795        N  0.11007691  0.28673543  0.28083656    -0.43600
N796        N  0.20666657  0.23600611  0.41672526    -0.43600
C797        C  0.84620488  0.42346640  0.24545993     0.00000
C798        C  0.80610719  0.44546701  0.24246344    -0.11900
C799        C  0.80300746  0.48380198  0.22829900     0.02200
C800        C  0.84075993  0.50179426  0.21719879    -0.00100
C801        C  0.88097585  0.48025668  0.22028681    -0.11800
C802        C  0.88390329  0.44105071  0.23386631     0.02100
H803        H  0.77681880  0.43255312  0.25115059     0.15100
H804        H  0.91004184  0.49361292  0.21162421     0.15100
C805        C  0.92608594  0.42009159  0.23571811     0.36700
C806        C  0.76085735  0.50484863  0.22614304     0.36600
N807        N  0.95996526  0.40329976  0.23688078    -0.43600
N808        N  0.72710084  0.52173889  0.22441563    -0.43600
C809        C  0.99636794  0.37541452  0.37661921     0.00000
C810        C  0.00319294  0.39277260  0.35275978    -0.11900
C811        C  0.97017564  0.39110813  0.33471895     0.02200
C812        C  0.92937763  0.37229329  0.34055836    -0.00100
C813        C  0.92104856  0.35901700  0.36510496    -0.11800
C814        C  0.95420527  0.36040134  0.38316917     0.02100
H815        H  0.03506309  0.40563332  0.34775410     0.15100
H816        H  0.88959227  0.34475107  0.36974026     0.15100
C817        C  0.94413837  0.34615074  0.40814384     0.36700
C818        C  0.97920588  0.40823301  0.31024725     0.36600
N819        N  0.93595375  0.33500768  0.42819426    -0.43600
N820        N  0.98673096  0.42247652  0.29078259    -0.43600
C821        C  0.84937692  0.21671237  0.33888780     0.00000
C822        C  0.83094752  0.22516437  0.36249362    -0.11900
C823        C  0.83376367  0.19453280  0.38168815     0.02200
C824        C  0.85444687  0.15390511  0.37737685    -0.00100
C825        C  0.87043479  0.14408358  0.35338433    -0.11800
C826        C  0.86845550  0.17517076  0.33422343     0.02100
H827        H  0.81573840  0.25663318  0.36637792     0.15100
H828        H  0.88677580  0.11301824  0.34998357     0.15100
C829        C  0.88656503  0.16358815  0.31018675     0.36700
C830        C  0.81563079  0.20589783  0.40574050     0.36600
N831        N  0.90115046  0.15411321  0.29096290    -0.43600
N832        N  0.80095835  0.21526609  0.42494643    -0.43600
C833        C  0.27630405  0.06041435  0.00139567     0.00000
C834        C  0.25375499  0.09990805  0.99795019    -0.11900
C835        C  0.21529539  0.10124691  0.98377913     0.02200
C836        C  0.19951663  0.06261964  0.97186624    -0.00100
C837        C  0.22250887  0.02307624  0.97515850    -0.11800
C838        C  0.26021178  0.02155594  0.99010136     0.02100
H839        H  0.26585825  0.12976845  0.00676805     0.15100
H840        H  0.21070839  0.99314397  0.96631213     0.15100
C841        C  0.28246605  0.98007327  0.99295811     0.36700
C842        C  0.19318137  0.14293080  0.98175552     0.36600
N843        N  0.30028181  0.94683898  0.99530128    -0.43600
N844        N  0.17542057  0.17637912  0.98048600    -0.43600
C845        C  0.62718037  0.00344258  0.22259443     0.00000
C846        C  0.66574852  0.97877132  0.22548243    -0.11900
C847        C  0.66645648  0.94011470  0.23941695     0.02200
C848        C  0.62788880  0.92464901  0.25078581    -0.00100
C849        C  0.58902005  0.94879208  0.24784617    -0.11800
C850        C  0.58844492  0.98813918  0.23412654     0.02100
H851        H  0.69582126  0.98973163  0.21678711     0.15100
H852        H  0.55920305  0.93720428  0.25654952     0.15100
C853        C  0.54753206  0.01131092  0.23164119     0.36700
C854        C  0.70696502  0.91585707  0.24088965     0.36600
N855        N  0.51469516  0.02986070  0.22966815    -0.43600
N856        N  0.73929769  0.89623487  0.24203713    -0.43600
C857        C  0.72193883  0.17542184  0.22360797     0.00000
C858        C  0.71005013  0.18852745  0.24783305    -0.11900
C859        C  0.73373319  0.22089999  0.26070103     0.02200
C860        C  0.76998287  0.24117261  0.24915624    -0.00100
C861        C  0.78237416  0.22750417  0.22511393    -0.11800
C862        C  0.75858528  0.19521813  0.21220597     0.02100
H863        H  0.68178696  0.17370037  0.25666330     0.15100
H864        H  0.81038473  0.24264462  0.21619847     0.15100
C865        C  0.77080489  0.18533494  0.18673506     0.36700
C866        C  0.72109462  0.23122840  0.28605262     0.36600
N867        N  0.78037490  0.17757398  0.16627842    -0.43600
N868        N  0.71106159  0.23932389  0.30639641    -0.43600
C869        C  0.55341790  0.07901488  0.12575100     0.00000
C870        C  0.54583455  0.03747509  0.11507900    -0.11900
C871        C  0.51467931  0.03222911  0.09597206     0.02200
C872        C  0.49172057  0.06922458  0.08705995    -0.00100
C873        C  0.50174027  0.11093223  0.09660435    -0.11800
C874        C  0.53176492  0.11610442  0.11594417     0.02100
H875        H  0.56305853  0.00912748  0.12219266     0.15100
H876        H  0.48432786  0.13947697  0.08983714     0.15100
C877        C  0.53913519  0.16014123  0.12538448     0.36700
C878        C  0.50716632  0.98887840  0.08565647     0.36600
N879        N  0.54404807  0.19575255  0.13262074    -0.43600
N880        N  0.50117969  0.95419507  0.07727674    -0.43600
C881        C  0.34504191  0.43087570  0.21574344     0.00000
C882        C  0.30503902  0.44974783  0.22294635    -0.11900
C883        C  0.30364416  0.48699840  0.23849816     0.02200
C884        C  0.34298135  0.50692812  0.24681091    -0.00100
C885        C  0.38304177  0.48873507  0.23913253    -0.11800
C886        C  0.38439751  0.45080437  0.22399724     0.02100
H887        H  0.27458263  0.43490811  0.21670956     0.15100
H888        H  0.41342814  0.50373070  0.24535125     0.15100
C889        C  0.42659161  0.43378895  0.21671282     0.36700
C890        C  0.26128814  0.50460842  0.24507046     0.36600
N891        N  0.46043285  0.42016363  0.21088356    -0.43600
N892        N  0.22727464  0.51855845  0.25030038    -0.43600
C893        C  0.26718472  0.25024011  0.21871351     0.00000
C894        C  0.23425145  0.22666128  0.20613032    -0.11900
C895        C  0.21309924  0.19139166  0.21747627     0.02200
C896        C  0.22451206  0.17947955  0.24203255    -0.00100
C897        C  0.25783616  0.20279470  0.25452225    -0.11800
C898        C  0.27912929  0.23799549  0.24311022     0.02100
H899        H  0.22606863  0.23479843  0.18701052     0.15100
H900        H  0.26584833  0.19489487  0.27369321     0.15100
C901        C  0.31183797  0.26212376  0.25714357     0.36700
C902        C  0.18056401  0.16732177  0.20329292     0.36600
N903        N  0.33793776  0.28163575  0.26836308    -0.43600
N904        N  0.15464647  0.14796191  0.19185621    -0.43600
C905        C  0.33110614  0.21085093  0.13066506     0.00000
C906        C  0.35873084  0.17522944  0.13595035    -0.11900
C907        C  0.36079545  0.13873743  0.11991788     0.02200
C908        C  0.33579081  0.13806374  0.09778524    -0.00100
C909        C  0.30573281  0.17167695  0.09341914    -0.11800
C910        C  0.30220475  0.20734277  0.10993033     0.02100
H911        H  0.37998933  0.17645604  0.15217986     0.15100
H912        H  0.28636490  0.17102327  0.07640936     0.15100
C913        C  0.27003278  0.24047147  0.10418573     0.36700
C914        C  0.39123121  0.10399173  0.12565358     0.36600
N915        N  0.24419138  0.26689048  0.09946501    -0.43600
N916        N  0.41537577  0.07607219  0.13048004    -0.43600
C917        C  0.70493517  0.35503485  0.00030538     0.00000
C918        C  0.72363492  0.39542498  0.99362720    -0.11900
C919        C  0.76130437  0.39738444  0.97885509     0.02200
C920        C  0.78177504  0.35822254  0.97065061    -0.00100
C921        C  0.76373909  0.31769184  0.97778283    -0.11800
C922        C  0.72542557  0.31579051  0.99226877     0.02100
H923        H  0.70845471  0.42582353  0.99980574     0.15100
H924        H  0.77915960  0.28740403  0.97165637     0.15100
C925        C  0.70870484  0.27327672  0.99926665     0.36700
C926        C  0.77885839  0.44018673  0.97302357     0.36600
N927        N  0.69535434  0.23918015  0.00490564    -0.43600
N928        N  0.79287738  0.47449211  0.96836500    -0.43600
C929        C  0.64882149  0.21464325  0.13310559     0.00000
C930        C  0.63749763  0.25774983  0.14012239    -0.11900
C931        C  0.63521089  0.29136030  0.12232677     0.02200
C932        C  0.64411736  0.28185711  0.09695745    -0.00100
C933        C  0.65761201  0.23942413  0.09027307    -0.11800
C934        C  0.65987053  0.20596031  0.10785438     0.02100
H935        H  0.62900505  0.26489031  0.15940786     0.15100
H936        H  0.66399820  0.23167463  0.07077150     0.15100
C937        C  0.66970862  0.16223601  0.09875137     0.36700
C938        C  0.62030176  0.33421345  0.13026853     0.36600
N939        N  0.67734512  0.12722364  0.09137882    -0.43600
N940        N  0.60835280  0.36851867  0.13673906    -0.43600
C941        C  0.48897506  0.37034946  0.08625046     0.00000
C942        C  0.45231830  0.34435226  0.08035743    -0.11900
C943        C  0.41616434  0.34298123  0.09626092     0.02200
C944        C  0.41665194  0.36727908  0.11876250    -0.00100
C945        C  0.45158542  0.39571760  0.12385498    -0.11800
C946        C  0.48721256  0.39831411  0.10759350     0.02100
H947        H  0.45240314  0.32383663  0.06371269     0.15100
H948        H  0.45195420  0.41437333  0.14120104     0.15100
C949        C  0.52183835  0.42875274  0.11405737     0.36700
C950        C  0.38055827  0.31377340  0.08989778     0.36600
N951        N  0.54927155  0.45350365  0.11923522    -0.43600
N952        N  0.35227146  0.29036903  0.08430578    -0.43600
C953        C  0.69862774  0.86512512  0.96960674     0.00000
C954        C  0.73930328  0.87738005  0.95956710    -0.11900
C955        C  0.77732777  0.87734480  0.97425248     0.02200
C956        C  0.77483520  0.86603896  0.99964663    -0.00100
C957        C  0.73429562  0.85453095  0.00987622    -0.11800
C958        C  0.69640410  0.85341514  0.99507848     0.02100
H959        H  0.74153457  0.88642804  0.94006061     0.15100
H960        H  0.73237277  0.84577402  0.02944484     0.15100
C961        C  0.65562723  0.84124769  0.00672668     0.36700
C962        C  0.81839988  0.88998201  0.96307633     0.36600
N963        N  0.62302572  0.83138270  0.01611627    -0.43600
N964        N  0.85136886  0.90013372  0.95420686    -0.43600
C965        C  0.52153097  0.94124359  0.97103421     0.00000
C966        C  0.51257130  0.98432631  0.96346700    -0.11900
C967        C  0.48115374  0.00982201  0.97575042     0.02200
C968        C  0.45790354  0.99209127  0.99615133    -0.00100
C969        C  0.46719991  0.94914176  0.00378566    -0.11800
C970        C  0.49872175  0.92382914  0.99166178     0.02100
H971        H  0.52936926  0.99789076  0.94745711     0.15100
H972        H  0.45051429  0.93539806  0.01978698     0.15100
C973        C  0.50714490  0.88042435  0.00124720     0.36700
C974        C  0.47333317  0.05364282  0.96664843     0.36600
N975        N  0.51366923  0.84567450  0.00899256    -0.43600
N976        N  0.46731766  0.08875245  0.95928998    -0.43600
C977        C  0.34470485  0.92043105  0.74840757     0.00000
C978        C  0.30748368  0.94730356  0.74621811    -0.11900
C979        C  0.30797044  0.98524116  0.73145961     0.02200
C980        C  0.34646061  0.99766265  0.71875579    -0.00100
C981        C  0.38402494  0.97174742  0.72138099    -0.11800
C982        C  0.38342934  0.93329924  0.73576028     0.02100
H983        H  0.27763223  0.93846423  0.75586380     0.15100
H984        H  0.41374297  0.98111178  0.71174667     0.15100
C985        C  0.42340970  0.90828889  0.73739585     0.36700
C986        C  0.26887756  0.01175811  0.73027264     0.36600
N987        N  0.45551325  0.88829988  0.73861267    -0.43600
N988        N  0.23765242  0.03315284  0.72937753    -0.43600
C989        C  0.48538503  0.86847018  0.88040971     0.00000
C990        C  0.48759501  0.89252951  0.85813697    -0.11900
C991        C  0.45423239  0.88962188  0.84024414     0.02200
C992        C  0.41726359  0.86328866  0.84475246    -0.00100
C993        C  0.41285873  0.84270763  0.86791825    -0.11800
C994        C  0.44649957  0.84498463  0.88572776     0.02100
H995        H  0.51632864  0.91209429  0.85410340     0.15100
H996        H  0.38433651  0.82244901  0.87147179     0.15100
C997        C  0.44019838  0.82265416  0.90911277     0.36700
C998        C  0.45886123  0.91322498  0.81714739     0.36600
N999        N  0.43503015  0.80490540  0.92788936    -0.43600
N1000       N  0.46230167  0.93229558  0.79867235    -0.43600
C1001       C  0.20500030  0.56669629  0.00472790     0.00000
C1002       C  0.22404786  0.52693936  0.99698411    -0.11900
C1003       C  0.26166154  0.52621768  0.98203107     0.02200
C1004       C  0.28184677  0.56601693  0.97471124    -0.00100
C1005       C  0.26389510  0.60586633  0.98331209    -0.11800
C1006       C  0.22564085  0.60652482  0.99797815     0.02100
H1007       H  0.20895463  0.49610185  0.00224963     0.15100
H1008       H  0.27921184  0.63661603  0.97812493     0.15100
C1009       C  0.20898911  0.64841527  0.00645106     0.36700
C1010       C  0.27929978  0.48389848  0.97494125     0.36600
N1011       N  0.19567026  0.68197127  0.01332125    -0.43600
N1012       N  0.29336194  0.44997619  0.96926070    -0.43600
C1013       C  0.45565887  0.48018987  0.97335752     0.00000
C1014       C  0.47773871  0.49924343  0.99385246    -0.11900
C1015       C  0.51154739  0.47737719  0.00613778     0.02200
C1016       C  0.52399295  0.43475968  0.99824223    -0.00100
C1017       C  0.50125061  0.41514044  0.97811160    -0.11800
C1018       C  0.46760026  0.43733742  0.96561587     0.02100
H1019       H  0.46913636  0.53207476  0.00017092     0.15100
H1020       H  0.50978649  0.38216918  0.97202282     0.15100
C1021       C  0.44711280  0.41568602  0.94452461     0.36700
C1022       C  0.53192359  0.49953793  0.02711592     0.36600
N1023       N  0.43082984  0.39825627  0.92759783    -0.43600
N1024       N  0.54814710  0.51746781  0.04389307    -0.43600
C1025       C  0.35165152  0.64614398  0.87664463     0.00000
C1026       C  0.31001173  0.65413564  0.86652400    -0.11900
C1027       C  0.30438886  0.68589594  0.84777699     0.02200
C1028       C  0.34110595  0.70894537  0.83847476    -0.00100
C1029       C  0.38264134  0.69930483  0.84790343    -0.11800
C1030       C  0.38817805  0.66892266  0.86691018     0.02100
H1031       H  0.28187692  0.63665647  0.87374498     0.15100
H1032       H  0.41100697  0.71692645  0.84102181     0.15100
C1033       C  0.43217748  0.66227555  0.87604759     0.36700
C1034       C  0.26098703  0.69373032  0.83815741     0.36600
N1035       N  0.46773429  0.65803108  0.88307822    -0.43600
N1036       N  0.22616476  0.69992034  0.83043244    -0.43600
C1037       C  0.63084211  0.49934951  0.75357890     0.00000
C1038       C  0.62674712  0.50321245  0.72762061    -0.11900
C1039       C  0.62541968  0.46575963  0.71220973     0.02200
C1040       C  0.62727316  0.42349638  0.72282521    -0.00100
C1041       C  0.62915991  0.41959171  0.74885974    -0.11800
C1042       C  0.63136631  0.45707272  0.76425453     0.02100
H1043       H  0.62572454  0.53555244  0.71932258     0.15100
H1044       H  0.63025199  0.38723601  0.75712903     0.15100
C1045       C  0.63314392  0.45135801  0.79096528     0.36700
C1046       C  0.62132289  0.47148565  0.68558153     0.36600
N1047       N  0.63440973  0.44689123  0.81237963    -0.43600
N1048       N  0.61785810  0.47607282  0.66425377    -0.43600
C1049       C  0.56095843  0.55868704  0.84858292     0.00000
C1050       C  0.51909628  0.54537221  0.84087853    -0.11900
C1051       C  0.48461308  0.54229655  0.85781582     0.02200
C1052       C  0.49155536  0.55302296  0.88329742    -0.00100
C1053       C  0.53414954  0.56343139  0.89135378    -0.11800
C1054       C  0.56894275  0.56573863  0.87429543     0.02100
H1055       H  0.51268315  0.53962936  0.82116645     0.15100
H1056       H  0.54007222  0.57079460  0.91093404     0.15100
C1057       C  0.61169875  0.57788785  0.88351503     0.36700
C1058       C  0.44184109  0.53148929  0.84793467     0.36600
N1059       N  0.64595931  0.58721972  0.89113708    -0.43600
N1060       N  0.40766755  0.52284051  0.83990799    -0.43600
C1061       C  0.65174187  0.71522191  0.84046093     0.00000
C1062       C  0.62932548  0.75325843  0.83322319    -0.11900
C1063       C  0.62623337  0.78947480  0.84926580     0.02200
C1064       C  0.64496832  0.78747865  0.87325002    -0.00100
C1065       C  0.67029324  0.75110616  0.87982104    -0.11800
C1066       C  0.67471166  0.71537872  0.86345982     0.02100
H1067       H  0.61274047  0.75417574  0.81529721     0.15100
H1068       H  0.68489269  0.74975627  0.89828975     0.15100
C1069       C  0.70120233  0.67886832  0.87146605     0.36700
C1070       C  0.60044234  0.82659809  0.84146289     0.36600
N1071       N  0.72293040  0.64999918  0.87791918    -0.43600
N1072       N  0.57992920  0.85629679  0.83497997    -0.43600
C1073       C  0.78405085  0.56919658  0.49490635     0.00000
C1074       C  0.76142659  0.60868451  0.49106330    -0.11900
C1075       C  0.72171167  0.60928247  0.47766441     0.02200
C1076       C  0.70420902  0.56977944  0.46755979    -0.00100
C1077       C  0.72793734  0.53068099  0.47074892    -0.11800
C1078       C  0.76723611  0.53005698  0.48422551     0.02100
H1079       H  0.77428729  0.63897262  0.49901525     0.15100
H1080       H  0.71559981  0.50016309  0.46280748     0.15100
C1081       C  0.79048847  0.48890797  0.48610937     0.36700
C1082       C  0.70036579  0.65100301  0.47407596     0.36600
N1083       N  0.80924516  0.45601975  0.48750569    -0.43600
N1084       N  0.68336014  0.68451509  0.47117323    -0.43600
C1085       C  0.95601340  0.48068806  0.49266694     0.00000
C1086       C  0.97339938  0.49771415  0.47052351    -0.11900
C1087       C  0.00688006  0.47621446  0.45772199     0.02200
C1088       C  0.02402844  0.43656277  0.46710953    -0.00100
C1089       C  0.00535166  0.41837168  0.48861832    -0.11800
C1090       C  0.97165494  0.43994996  0.50144262     0.02100
H1091       H  0.96130205  0.52865830  0.46333394     0.15100
H1092       H  0.01738295  0.38725268  0.49558773     0.15100
C1093       C  0.95521263  0.42024293  0.52397525     0.36700
C1094       C  0.02160986  0.49500031  0.43452374     0.36600
N1095       N  0.94206097  0.40432541  0.54200808    -0.43600
N1096       N  0.03324474  0.50996898  0.41589612    -0.43600
C1097       C  0.13504310  0.48832892  0.71645473     0.00000
C1098       C  0.17366635  0.46406988  0.71973685    -0.11900
C1099       C  0.17424651  0.42621033  0.73442458     0.02200
C1100       C  0.13525815  0.41086063  0.74549908    -0.00100
C1101       C  0.09629729  0.43399628  0.74155096    -0.11800
C1102       C  0.09595215  0.47284043  0.72763453     0.02100
H1103       H  0.20393886  0.47540692  0.71137961     0.15100
H1104       H  0.06628299  0.42258750  0.75018872     0.15100
C1105       C  0.05502710  0.49613959  0.72549137     0.36700
C1106       C  0.21530245  0.40352864  0.73773692     0.36600
N1107       N  0.02221029  0.51489201  0.72412168    -0.43600
N1108       N  0.24819952  0.38542115  0.74051153    -0.43600
C1109       C  0.21593826  0.67010152  0.72301818     0.00000
C1110       C  0.25362816  0.68750986  0.71178324    -0.11900
C1111       C  0.27750276  0.72145778  0.72324544     0.02200
C1112       C  0.26420982  0.73821030  0.74669061    -0.00100
C1113       C  0.22658464  0.72079984  0.75795073    -0.11800
C1114       C  0.20249568  0.68709005  0.74639936     0.02100
H1115       H  0.26355490  0.67579702  0.69349667     0.15100
H1116       H  0.21661346  0.73267518  0.77620382     0.15100
C1117       C  0.16480137  0.66987575  0.75928684     0.36700
C1118       C  0.31424850  0.73982803  0.70998247     0.36600
N1119       N  0.13461812  0.65607895  0.76963628    -0.43600
N1120       N  0.34346699  0.75472993  0.69924024    -0.43600
C1121       C  0.06155475  0.55602568  0.62169540     0.00000
C1122       C  0.07059759  0.57384112  0.59815990    -0.11900
C1123       C  0.03888174  0.57343047  0.57912959     0.02200
C1124       C  0.99749126  0.55401641  0.58343609    -0.00100
C1125       C  0.99005858  0.53338995  0.60646582    -0.11800
C1126       C  0.02126501  0.53473043  0.62554153     0.02100
H1127       H  0.10141489  0.59071416  0.59516769     0.15100
H1128       H  0.95881384  0.51784613  0.61016708     0.15100
C1129       C  0.01065682  0.51484824  0.64912657     0.36700
C1130       C  0.04938194  0.59433629  0.55582319     0.36600
N1131       N  0.00186161  0.49877664  0.66794446    -0.43600
N1132       N  0.05790175  0.61130023  0.53720882    -0.43600
C1133       C  0.84700162  0.92055212  0.72065298     0.00000
C1134       C  0.84816148  0.91808004  0.74676172    -0.11900
C1135       C  0.84825442  0.95631015  0.76155606     0.02200
C1136       C  0.84810892  0.99802483  0.75019756    -0.00100
C1137       C  0.84865577  0.00051159  0.72406721    -0.11800
C1138       C  0.84775213  0.96223065  0.70926179     0.02100
H1139       H  0.84826800  0.88619546  0.75562177     0.15100
H1140       H  0.84887624  0.03239780  0.71521696     0.15100
C1141       C  0.84918446  0.96649499  0.68245237     0.36700
C1142       C  0.84980864  0.95188538  0.78835649     0.36600
N1143       N  0.85056035  0.96980664  0.66096907    -0.43600
N1144       N  0.85123902  0.94835459  0.80982828    -0.43600
C1145       C  0.71825623  0.67657229  0.75027236     0.00000
C1146       C  0.75941014  0.68935531  0.75956147    -0.11900
C1147       C  0.78475591  0.72093140  0.74731622     0.02200
C1148       C  0.76936634  0.73995010  0.72496514    -0.00100
C1149       C  0.72804617  0.72752348  0.71582297    -0.11800
C1150       C  0.70251036  0.69632879  0.72817563     0.02100
H1151       H  0.77125650  0.67575010  0.77692937     0.15100
H1152       H  0.71600731  0.74138015  0.69856138     0.15100
C1153       C  0.66062704  0.68480939  0.71736781     0.36700
C1154       C  0.82563223  0.73432157  0.75867089     0.36600
N1155       N  0.62702375  0.67574620  0.70872076    -0.43600
N1156       N  0.85828891  0.74523709  0.76781061    -0.43600
C1157       C  0.85005703  0.70619196  0.63261591     0.00000
C1158       C  0.89057394  0.70079180  0.62095760    -0.11900
C1159       C  0.89540196  0.67178390  0.60093690     0.02200
C1160       C  0.85920577  0.64662373  0.59242571    -0.00100
C1161       C  0.81905624  0.65014457  0.60492551    -0.11800
C1162       C  0.81406508  0.68027988  0.62475513     0.02100
H1163       H  0.91829806  0.72068398  0.62687490     0.15100
H1164       H  0.79147364  0.63032615  0.59880753     0.15100
C1165       C  0.77216877  0.68354535  0.63701294     0.36700
C1166       C  0.93827978  0.66849204  0.58970491     0.36600
N1167       N  0.73865211  0.68609316  0.64693698    -0.43600
N1168       N  0.97276414  0.66645084  0.58088580    -0.43600
C1169       C  0.20492437  0.85469595  0.50461448     0.00000
C1170       C  0.22911412  0.81583636  0.50168436    -0.11900
C1171       C  0.26790422  0.81522297  0.48755986     0.02200
C1172       C  0.28247471  0.85395647  0.47564338    -0.00100
C1173       C  0.25743306  0.89243446  0.47832861    -0.11800
C1174       C  0.21929438  0.89314905  0.49267185     0.02100
H1175       H  0.21812585  0.78615777  0.51082113     0.15100
H1176       H  0.26775017  0.92240747  0.46924800     0.15100
C1177       C  0.19453215  0.93350644  0.49414075     0.36700
C1178       C  0.29143022  0.77430767  0.48534980     0.36600
N1179       N  0.17450170  0.96569150  0.49529815    -0.43600
N1180       N  0.31020593  0.74141976  0.48373315    -0.43600
C1181       C  0.97454792  0.99839226  0.47482907     0.00000
C1182       C  0.00441984  0.01798416  0.49168682    -0.11900
C1183       C  0.03510455  0.99274601  0.50482227     0.02200
C1184       C  0.03637328  0.94668943  0.50122854    -0.00100
C1185       C  0.00742516  0.92749398  0.48382253    -0.11800
C1186       C  0.97681946  0.95242569  0.47083444     0.02100
H1187       H  0.00402453  0.05327399  0.49461407     0.15100
H1188       H  0.00773647  0.89225446  0.48063993     0.15100
C1189       C  0.94837741  0.92923212  0.45360556     0.36700
C1190       C  0.06465240  0.01514491  0.52174703     0.36600
N1191       N  0.92573801  0.91041371  0.43983386    -0.43600
N1192       N  0.08837159  0.03316108  0.53526946    -0.43600
C1193       C  0.13892652  0.70855895  0.63461212     0.00000
C1194       C  0.09734131  0.71990351  0.62596712    -0.11900
C1195       C  0.09201873  0.75235175  0.60819251     0.02200
C1196       C  0.12885828  0.77509957  0.59894966    -0.00100
C1197       C  0.17053835  0.76567334  0.60854178    -0.11800
C1198       C  0.17589443  0.73210821  0.62616887     0.02100
H1199       H  0.06880750  0.70200720  0.63236989     0.15100
H1200       H  0.19881899  0.78335475  0.60169791     0.15100
C1201       C  0.21918500  0.72297286  0.63558957     0.36700
C1202       C  0.04800709  0.76097154  0.59966436     0.36600
N1203       N  0.25388011  0.71581409  0.64322224    -0.43600
N1204       N  0.01241220  0.76680469  0.59311707    -0.43600
C1205       C  0.98910916  0.87045929  0.59022953     0.00000
C1206       C  0.99520194  0.88849768  0.61427975    -0.11900
C1207       C  0.96316269  0.88420175  0.63268860     0.02200
C1208       C  0.92371593  0.86217725  0.62710668    -0.00100
C1209       C  0.91578884  0.84774442  0.60255952    -0.11800
C1210       C  0.94808951  0.85146895  0.58414906     0.02100
H1211       H  0.02605922  0.90395433  0.61923921     0.15100
H1212       H  0.88544219  0.83077717  0.59815291     0.15100
C1213       C  0.93867549  0.83402370  0.55956583     0.36700
C1214       C  0.97192642  0.90174114  0.65734844     0.36600
N1215       N  0.93110776  0.81992018  0.53988940    -0.43600
N1216       N  0.97887500  0.91584498  0.67709812    -0.43600
loop_ 
_geom_bond_atom_site_label_1 
_geom_bond_atom_site_label_2 
_geom_bond_distance 
_geom_bond_site_symmetry_2 
_ccdc_geom_bond_type 
O1            V9   1.910       .  S
O1           C11   1.266       .  A
O2            V9   1.906       .  S
O2           C12   1.267       .  A
O3            V9   1.880       .  S
O3           C13   1.261       .  A
O4            V9   1.878       .  S
O4           C14   1.259       .  A
O5           V10   1.914       .  S
O5           C14   1.267       .  A
O6           V10   1.911       .  S
O6           C13   1.267       .  A
O7           V10   1.890       .  S
O7           C12   1.262       .  A
O8           V10   1.894       .  S
O8           C11   1.263       .  A
V9           V10   2.085       .  T
C11        C1169   1.478       .  S
C12        C1205   1.486   1_455  S
C13        C1184   1.489       .  S
C14        C1196   1.471       .  S
O15          V23   1.902       .  S
O15          C25   1.265       .  A
O16          V23   1.898       .  S
O16          C26   1.266       .  A
O17          V23   1.891       .  S
O17          C27   1.263       .  A
O18          V23   1.890       .  S
O18          C28   1.262       .  A
O19          V24   1.905       .  S
O19          C28   1.268       .  A
O20          V24   1.906       .  S
O20          C27   1.265       .  A
O21          V24   1.895       .  S
O21          C26   1.262       .  A
O22          V24   1.902       .  S
O22          C25   1.265       .  A
V23          V24   2.084       .  T
C25        C1133   1.479       .  S
C26        C1157   1.471       .  S
C27        C1208   1.474       .  S
C28        C1148   1.484       .  S
O29          V37   1.897       .  S
O29          C39   1.263       .  A
O30          V37   1.890       .  S
O30          C40   1.264       .  A
O31          V37   1.891       .  S
O31          C41   1.262       .  A
O32          V37   1.891       .  S
O32          C42   1.262       .  A
O33          V38   1.900       .  S
O33          C42   1.266       .  A
O34          V38   1.908       .  S
O34          C41   1.266       .  A
O35          V38   1.899       .  S
O35          C40   1.263       .  A
O36          V38   1.909       .  S
O36          C39   1.268       .  A
V37          V38   2.086       .  T
C39        C1097   1.490       .  S
C40        C1193   1.471       .  S
C41        C1121   1.476       .  S
C42        C1109   1.481       .  S
O43          V51   1.917       .  S
O43          C53   1.268       .  A
O44          V51   1.915       .  S
O44          C54   1.269       .  A
O45          V51   1.878       .  S
O45          C55   1.260       .  A
O46          V51   1.878       .  S
O46          C56   1.259       .  A
O47          V52   1.911       .  S
O47          C56   1.267       .  A
O48          V52   1.905       .  S
O48          C55   1.266       .  A
O49          V52   1.885       .  S
O49          C54   1.262       .  A
O50          V52   1.894       .  S
O50          C53   1.263       .  A
V51          V52   2.085       .  T
C53        C1073   1.485       .  S
C54        C1124   1.489       .  S
C55        C1085   1.478       .  S
C56        C1160   1.473       .  S
O57          V65   1.903       .  S
O57          C67   1.265       .  A
O58          V65   1.898       .  S
O58          C68   1.266       .  A
O59          V65   1.882       .  S
O59          C69   1.259       .  A
O60          V65   1.884       .  S
O60          C70   1.262       .  A
O61          V66   1.914       .  S
O61          C70   1.267       .  A
O62          V66   1.913       .  S
O62          C69   1.270       .  A
O63          V66   1.887       .  S
O63          C68   1.260       .  A
O64          V66   1.899       .  S
O64          C67   1.264       .  A
V65          V66   2.085       .  T
C67        C1037   1.478       .  S
C68        C1061   1.477       .  S
C69        C1145   1.485       .  S
C70        C1049   1.480       .  S
O71          V79   1.922       .  S
O71          C81   1.270       .  A
O72          V79   1.916       .  S
O72          C82   1.270       .  A
O73          V79   1.882       .  S
O73          C83   1.260       .  A
O74          V79   1.878       .  S
O74          C84   1.260       .  A
O75          V80   1.914       .  S
O75          C84   1.269       .  A
O76          V80   1.921       .  S
O76          C83   1.270       .  A
O77          V80   1.883       .  S
O77          C82   1.259       .  A
O78          V80   1.895       .  S
O78          C81   1.263       .  A
V79          V80   2.084       .  T
C81        C1004   1.494       .  S
C82        C1052   1.484       .  S
C83        C1025   1.481       .  S
C84        C1013   1.488       .  S
O85          V93   1.903       .  S
O85          C95   1.265       .  A
O86          V93   1.899       .  S
O86          C96   1.266       .  A
O87          V93   1.891       .  S
O87          C97   1.262       .  A
O88          V93   1.889       .  S
O88          C98   1.261       .  A
O89          V94   1.908       .  S
O89          C98   1.266       .  A
O90          V94   1.902       .  S
O90          C97   1.266       .  A
O91          V94   1.905       .  S
O91          C96   1.264       .  A
O92          V94   1.915       .  S
O92          C95   1.269       .  A
V93          V94   2.085       .  T
C95         C977   1.500       .  S
C96        C1028   1.481       .  S
C97        C1112   1.480       .  S
C98         C992   1.472       .  S
O99         V107   1.902       .  S
O99         C109   1.265       .  A
O100        V107   1.904       .  S
O100        C110   1.267       .  A
O101        V107   1.882       .  S
O101        C111   1.260       .  A
O102        V107   1.876       .  S
O102        C112   1.259       .  A
O103        V108   1.899       .  S
O103        C112   1.266       .  A
O104        V108   1.900       .  S
O104        C111   1.264       .  A
O105        V108   1.898       .  S
O105        C110   1.264       .  A
O106        V108   1.902       .  S
O106        C109   1.265       .  A
V107        V108   2.085       .  T
C109        C953   1.485       .  S
C110        C989   1.488       .  S
C111       C1064   1.462       .  S
C112        C965   1.475       .  S
O113        V121   1.913       .  S
O113        C123   1.268       .  A
O114        V121   1.907       .  S
O114        C124   1.269       .  A
O115        V121   1.889       .  S
O115        C125   1.261       .  A
O116        V121   1.884       .  S
O116        C126   1.262       .  A
O117        V122   1.914       .  S
O117        C126   1.267       .  A
O118        V122   1.904       .  S
O118        C125   1.268       .  A
O119        V122   1.882       .  S
O119        C124   1.259       .  A
O120        V122   1.894       .  S
O120        C123   1.263       .  A
V121        V122   2.085       .  T
C123        C917   1.487       .  S
C124        C941   1.483       .  S
C125       C1016   1.488   1_554  S
C126        C932   1.480       .  S
O127        V135   1.907       .  S
O127        C137   1.266       .  A
O128        V135   1.908       .  S
O128        C138   1.269       .  A
O129        V135   1.881       .  S
O129        C139   1.259       .  A
O130        V135   1.882       .  S
O130        C140   1.259       .  A
O131        V136   1.899       .  S
O131        C140   1.266       .  A
O132        V136   1.907       .  S
O132        C139   1.265       .  A
O133        V136   1.887       .  S
O133        C138   1.261       .  A
O134        V136   1.899       .  S
O134        C137   1.265       .  A
V135        V136   2.087       .  T
C137        C881   1.487       .  S
C138        C905   1.488       .  S
C139        C944   1.465       .  S
C140        C893   1.470       .  S
O141        V149   1.922       .  S
O141        C151   1.270       .  A
O142        V149   1.918       .  S
O142        C152   1.270       .  A
O143        V149   1.880       .  S
O143        C153   1.260       .  A
O144        V149   1.882       .  S
O144        C154   1.260       .  A
O145        V150   1.901       .  S
O145        C154   1.266       .  A
O146        V150   1.908       .  S
O146        C153   1.266       .  A
O147        V150   1.883       .  S
O147        C152   1.260       .  A
O148        V150   1.892       .  S
O148        C151   1.263       .  A
V149        V150   2.086       .  T
C151        C845   1.496       .  S
C152        C929   1.487       .  S
C153        C869   1.469       .  S
C154        C857   1.474       .  S
O155        V163   1.896       .  S
O155        C165   1.264       .  A
O156        V163   1.895       .  S
O156        C166   1.265       .  A
O157        V163   1.886       .  S
O157        C167   1.261       .  A
O158        V163   1.884       .  S
O158        C168   1.261       .  A
O159        V164   1.905       .  S
O159        C168   1.265       .  A
O160        V164   1.891   1_565  S
O160        C167   1.265   1_565  A
O161        V164   1.892       .  S
O161        C166   1.262       .  A
O162        V164   1.900       .  S
O162        C165   1.264       .  A
V163        V164   2.087       .  T
C165        C833   1.475       .  S
C166        C872   1.471       .  S
C167        C968   1.477   1_544  S
C168        C908   1.466       .  S
O169        V177   1.913       .  S
O169        C179   1.268       .  A
O170        V177   1.913       .  S
O170        C180   1.268       .  A
O171        V177   1.888       .  S
O171        C181   1.261       .  A
O172        V177   1.886       .  S
O172        C182   1.261       .  A
O173        V178   1.902       .  S
O173        C182   1.265       .  A
O174        V178   1.898       .  S
O174        C181   1.265       .  A
O175        V178   1.886       .  S
O175        C180   1.262       .  A
O176        V178   1.896       .  S
O176        C179   1.264       .  A
V177        V178   2.087       .  T
C179        C797   1.492       .  S
C180        C821   1.485       .  S
C181        C860   1.475       .  S
C182        C812   1.468       .  S
O183        V191   1.908       .  S
O183        C193   1.266       .  A
O184        V191   1.902       .  S
O184        C194   1.266       .  A
O185        V191   1.883       .  S
O185        C195   1.261       .  A
O186        V191   1.887       .  S
O186        C196   1.261       .  A
O187        V192   1.894       .  S
O187        C196   1.265       .  A
O188        V192   1.905       .  S
O188        C195   1.264       .  A
O189        V192   1.889       .  S
O189        C194   1.261       .  A
O190        V192   1.898       .  S
O190        C193   1.264       .  A
V191        V192   2.088       .  T
C193        C773   1.482       .  S
C194        C809   1.475   1_455  S
C195        C788   1.468       .  S
C196       C1088   1.476       .  S
O197        V205   1.916       .  S
O197        C207   1.268       .  A
O198        V205   1.913       .  S
O198        C208   1.269       .  A
O199        V205   1.880       .  S
O199        C209   1.259       .  A
O200        V205   1.879       .  S
O200        C210   1.259       .  A
O201        V206   1.911       .  S
O201        C210   1.267       .  A
O202        V206   1.904       .  S
O202        C209   1.267       .  A
O203        V206   1.879       .  S
O203        C208   1.260       .  A
O204        V206   1.890       .  S
O204        C207   1.262       .  A
V205        V206   2.085       .  T
C207        C752   1.487       .  S
C208        C785   1.483       .  S
C209        C896   1.472       .  S
C210        C764   1.472       .  S
O211        V219   1.912       .  S
O211        C221   1.268       .  A
O212        V219   1.902       .  S
O212        C222   1.266       .  A
O213        V219   1.893       .  S
O213        C223   1.263       .  A
O214        V219   1.900       .  S
O214        C224   1.265       .  A
O215        V220   1.893       .  S
O215        C224   1.265       .  A
O216        V220   1.903       .  S
O216        C223   1.265       .  A
O217        V220   1.893       .  S
O217        C222   1.261       .  A
O218        V220   1.904       .  S
O218        C221   1.266       .  A
V219        V220   2.084       .  T
C221        C737   1.496       .  S
C222        C761   1.473   1_655  S
C223        C824   1.476       .  S
C224       C1181   1.491   1_545  S
O225        V233   1.910       .  S
O225        C235   1.266       .  A
O226        V233   1.909       .  S
O226        C236   1.268       .  A
O227        V233   1.883       .  S
O227        C237   1.260       .  A
O228        V233   1.885       .  S
O228        C238   1.261       .  A
O229        V234   1.904       .  S
O229        C238   1.265       .  A
O230        V234   1.904       .  S
O230        C237   1.267       .  A
O231        V234   1.886       .  S
O231        C236   1.261       .  A
O232        V234   1.895       .  S
O232        C235   1.263       .  A
V233        V234   2.085       .  T
C235       C1040   1.478       .  S
C236        C725   1.485       .  S
C237        C704   1.485       .  S
C238        C713   1.468       .  S
O239        V247   1.911       .  S
O239        C249   1.267       .  A
O240        V247   1.908       .  S
O240        C250   1.267       .  A
O241        V247   1.888       .  S
O241        C251   1.261       .  A
O242        V247   1.889       .  S
O242        C252   1.262       .  A
O243        V248   1.909       .  S
O243        C252   1.268       .  A
O244        V248   1.911       .  S
O244        C251   1.267       .  A
O245        V248   1.883       .  S
O245        C250   1.261       .  A
O246        V248   1.897       .  S
O246        C249   1.265       .  A
V247        V248   2.086       .  T
C249        C776   1.492       .  S
C250        C716   1.479       .  S
C251        C689   1.475       .  S
C252        C677   1.485       .  S
O253        V261   1.916       .  S
O253        C263   1.268       .  A
O254        V261   1.916       .  S
O254        C264   1.269       .  A
O255        V261   1.881       .  S
O255        C265   1.259       .  A
O256        V261   1.883       .  S
O256        C266   1.260       .  A
O257        V262   1.914       .  S
O257        C266   1.268       .  A
O258        V262   1.904       .  S
O258        C265   1.267       .  A
O259        V262   1.888       .  S
O259        C264   1.262       .  A
O260        V262   1.901       .  S
O260        C263   1.264       .  A
V261        V262   2.086       .  T
C263        C980   1.487   1_545  S
C264        C692   1.489       .  S
C265        C653   1.479       .  S
C266        C665   1.478       .  S
O267        V275   1.917       .  S
O267        C277   1.269       .  A
O268        V275   1.917       .  S
O268        C278   1.269       .  A
O269        V275   1.883       .  S
O269        C279   1.259       .  A
O270        V275   1.886       .  S
O270        C280   1.261       .  A
O271        V276   1.904   1_565  S
O271        C280   1.268   1_565  A
O272        V276   1.908       .  S
O272        C279   1.266       .  A
O273        V276   1.887       .  S
O273        C278   1.261       .  A
O274        V276   1.901       .  S
O274        C277   1.264       .  A
V275        V276   2.086       .  T
C277        C740   1.490       .  S
C278        C668   1.485       .  S
C279        C728   1.468       .  S
C280        C641   1.485   1_545  S
O281        V289   1.911       .  S
O281        C291   1.267       .  A
O282        V289   1.910       .  S
O282        C292   1.268       .  A
O283        V289   1.882       .  S
O283        C293   1.261       .  A
O284        V289   1.883       .  S
O284        C294   1.260       .  A
O285        V290   1.902       .  S
O285        C294   1.267       .  A
O286        V290   1.910       .  S
O286        C293   1.267       .  A
O287        V290   1.883       .  S
O287        C292   1.261       .  A
O288        V290   1.893       .  S
O288        C291   1.262       .  A
V289        V290   2.087       .  T
C291       C1100   1.481       .  S
C292        C632   1.479       .  S
C293        C620   1.474       .  S
C294        C656   1.478       .  S
O295        V303   1.912       .  S
O295        C305   1.267       .  A
O296        V303   1.911       .  S
O296        C306   1.268       .  A
O297        V303   1.883       .  S
O297        C307   1.261       .  A
O298        V303   1.882       .  S
O298        C308   1.260       .  A
O299        V304   1.906       .  S
O299        C308   1.265       .  A
O300        V304   1.904       .  S
O300        C307   1.266       .  A
O301        V304   1.886       .  S
O301        C306   1.260       .  A
O302        V304   1.895       .  S
O302        C305   1.264       .  A
V303        V304   2.086       .  T
C305        C920   1.487       .  S
C306        C617   1.479       .  S
C307        C593   1.486       .  S
C308        C608   1.467       .  S
O309        V317   1.910       .  S
O309        C319   1.267       .  A
O310        V317   1.908       .  S
O310        C320   1.267       .  A
O311        V317   1.878       .  S
O311        C321   1.259       .  A
O312        V317   1.873       .  S
O312        C322   1.259       .  A
O313        V318   1.912       .  S
O313        C322   1.269       .  A
O314        V318   1.913       .  S
O314        C321   1.267       .  A
O315        V318   1.883       .  S
O315        C320   1.260       .  A
O316        V318   1.895       .  S
O316        C319   1.262       .  A
V317        V318   2.086       .  T
C319       C1136   1.480   1_545  S
C320        C605   1.481       .  S
C321        C581   1.473       .  S
C322        C701   1.487       .  S
O323        V331   1.896       .  S
O323        C333   1.264       .  A
O324        V331   1.895       .  S
O324        C334   1.265       .  A
O325        V331   1.883       .  S
O325        C335   1.261       .  A
O326        V331   1.884       .  S
O326        C336   1.261       .  A
O327        V332   1.904       .  S
O327        C336   1.265       .  A
O328        V332   1.893   1_565  S
O328        C335   1.264   1_565  A
O329        V332   1.897       .  S
O329        C334   1.262       .  A
O330        V332   1.903       .  S
O330        C333   1.266       .  A
V331        V332   2.085       .  T
C333        C836   1.485       .  S
C334        C584   1.469   1_455  S
C335        C572   1.477   1_545  S
C336        C629   1.472       .  S
O337        V345   1.910       .  S
O337        C347   1.267       .  A
O338        V345   1.911       .  S
O338        C348   1.268       .  A
O339        V345   1.883       .  S
O339        C349   1.261       .  A
O340        V345   1.884       .  S
O340        C350   1.260       .  A
O341        V346   1.902       .  S
O341        C350   1.266       .  A
O342        V346   1.907       .  S
O342        C349   1.266       .  A
O343        V346   1.886       .  S
O343        C348   1.262       .  A
O344        V346   1.898       .  S
O344        C347   1.264       .  A
V345        V346   2.087       .  T
C347        C884   1.487       .  S
C348        C557   1.484       .  S
C349        C545   1.473       .  S
C350        C533   1.476       .  S
O351        V359   1.915       .  S
O351        C361   1.268       .  A
O352        V359   1.912       .  S
O352        C362   1.268       .  A
O353        V359   1.894       .  S
O353        C363   1.262       .  A
O354        V359   1.890       .  S
O354        C364   1.261       .  A
O355        V360   1.906       .  S
O355        C364   1.265       .  A
O356        V360   1.905       .  S
O356        C363   1.267       .  A
O357        V360   1.884       .  S
O357        C362   1.260       .  A
O358        V360   1.896       .  S
O358        C361   1.264       .  A
V359        V360   2.087       .  T
C361       C1076   1.494       .  S
C362        C548   1.478       .  S
C363        C680   1.485       .  S
C364        C521   1.469       .  S
O365        V373   1.913       .  S
O365        C375   1.267       .  A
O366        V373   1.909       .  S
O366        C376   1.268       .  A
O367        V373   1.884       .  S
O367        C377   1.260       .  A
O368        V373   1.883       .  S
O368        C378   1.260       .  A
O369        V374   1.910       .  S
O369        C378   1.266       .  A
O370        V374   1.907       .  S
O370        C377   1.268       .  A
O371        V374   1.881       .  S
O371        C376   1.259       .  A
O372        V374   1.892       .  S
O372        C375   1.264       .  A
V373        V374   2.086       .  T
C375       C1172   1.490       .  S
C376        C509   1.479       .  S
C377        C644   1.484       .  S
C378        C560   1.472       .  S
O379        V387   1.913       .  S
O379        C389   1.267       .  A
O380        V387   1.909       .  S
O380        C390   1.267       .  A
O381        V387   1.888       .  S
O381        C391   1.262       .  A
O382        V387   1.895       .  S
O382        C392   1.263       .  A
O383        V388   1.901       .  S
O383        C392   1.266       .  A
O384        V388   1.903       .  S
O384        C391   1.264       .  A
O385        V388   1.892       .  S
O385        C390   1.263       .  A
O386        V388   1.901       .  S
O386        C389   1.265       .  A
V387        V388   2.086       .  T
C389        C848   1.487       .  S
C390        C524   1.492       .  S
C391        C512   1.471       .  S
C392        C497   1.485       .  S
O393        V401   1.923       .  S
O393        C403   1.270       .  A
O394        V401   1.919       .  S
O394        C404   1.271       .  A
O395        V401   1.880       .  S
O395        C405   1.259       .  A
O396        V401   1.880       .  S
O396        C406   1.259       .  A
O397        V402   1.914       .  S
O397        C406   1.267       .  A
O398        V402   1.904       .  S
O398        C405   1.267       .  A
O399        V402   1.875       .  S
O399        C404   1.257       .  A
O400        V402   1.883       .  S
O400        C403   1.261       .  A
V401        V402   2.085       .  T
C403        C749   1.487       .  S
C404        C488   1.485       .  S
C405        C536   1.476       .  S
C406        C473   1.472       .  S
O407        V415   1.899       .  S
O407        C417   1.263       .  A
O408        V415   1.895       .  S
O408        C418   1.266       .  A
O409        V415   1.883       .  S
O409        C419   1.261       .  A
O410        V415   1.877       .  S
O410        C420   1.260       .  A
O411        V416   1.898       .  S
O411        C420   1.265       .  A
O412        V416   1.902       .  S
O412        C419   1.265       .  A
O413        V416   1.899       .  S
O413        C418   1.263       .  A
O414        V416   1.904       .  S
O414        C417   1.265       .  A
V415        V416   2.084       .  T
C417        C956   1.474   1_554  S
C418        C476   1.475       .  S
C419        C461   1.470       .  S
C420        C569   1.476   1_554  S
O421        V429   1.912       .  S
O421        C431   1.267       .  A
O422        V429   1.910       .  S
O422        C432   1.267       .  A
O423        V429   1.883       .  S
O423        C433   1.262       .  A
O424        V429   1.887       .  S
O424        C434   1.262       .  A
O425        V430   1.899       .  S
O425        C434   1.266       .  A
O426        V430   1.908       .  S
O426        C433   1.265       .  A
O427        V430   1.893       .  S
O427        C432   1.263       .  A
O428        V430   1.905       .  S
O428        C431   1.266       .  A
V429        V430   2.086       .  T
C431       C1001   1.492       .  S
C432        C449   1.485   1_455  S
C433        C485   1.472       .  S
C434        C596   1.486   1_554  S
O435        V443   1.911       .  S
O435        C445   1.267       .  A
O436        V443   1.906       .  S
O436        C446   1.267       .  A
O437        V443   1.886       .  S
O437        C447   1.261       .  A
O438        V443   1.881       .  S
O438        C448   1.260       .  A
O439        V444   1.916       .  S
O439        C448   1.268       .  A
O440        V444   1.911       .  S
O440        C447   1.269       .  A
O441        V444   1.882       .  S
O441        C446   1.259       .  A
O442        V444   1.898       .  S
O442        C445   1.263       .  A
V443        V444   2.087       .  T
C445        C800   1.484       .  S
C446        C464   1.477       .  S
C447        C500   1.486       .  S
C448        C452   1.475       .  S
C449        C450   1.404       .  A
C449        C454   1.415       .  A
C450        C451   1.396       .  A
C450        H455   1.084   1_655  S
C451        C452   1.409       .  A
C451        C458   1.444       .  S
C452        C453   1.405       .  A
C453        C454   1.406       .  A
C453        H456   1.085       .  S
C454        C457   1.444       .  S
C457        N459   1.157       .  T
C458        N460   1.157       .  T
C461        C462   1.400       .  A
C461        C466   1.413       .  A
C462        C463   1.395       .  A
C462        H467   1.086       .  S
C463        C464   1.416       .  A
C463        C470   1.445       .  S
C464        C465   1.403       .  A
C465        C466   1.399       .  A
C465        H468   1.086       .  S
C466        C469   1.445       .  S
C469        N471   1.157       .  T
C470        N472   1.157       .  T
C473        C474   1.402       .  A
C473        C478   1.414       .  A
C474        C475   1.407       .  A
C474        H479   1.084       .  S
C475        C476   1.415   1_455  A
C475        C482   1.443       .  S
C476        C477   1.397       .  A
C477        C478   1.390   1_655  A
C477        H480   1.085       .  S
C478        C481   1.445       .  S
C481        N483   1.157       .  T
C482        N484   1.157   1_455  T
C485        C486   1.397       .  A
C485        C490   1.412       .  A
C486        C487   1.393       .  A
C486        H491   1.087       .  S
C487        C488   1.420       .  A
C487        C494   1.445       .  S
C488        C489   1.406       .  A
C489        C490   1.405       .  A
C489        H492   1.085       .  S
C490        C493   1.443       .  S
C493        N495   1.157       .  T
C494        N496   1.157       .  T
C497        C498   1.404       .  A
C497        C502   1.414       .  A
C498        C499   1.399       .  A
C498        H503   1.085       .  S
C499        C500   1.416       .  A
C499        C506   1.445       .  S
C500        C501   1.406       .  A
C501        C502   1.403       .  A
C501        H504   1.085       .  S
C502        C505   1.444       .  S
C505        N507   1.157       .  T
C506        N508   1.157       .  T
C509        C510   1.403       .  A
C509        C514   1.418       .  A
C510        C511   1.400       .  A
C510        H515   1.086       .  S
C511        C512   1.412       .  A
C511        C518   1.444       .  S
C512        C513   1.399       .  A
C513        C514   1.396       .  A
C513        H516   1.087       .  S
C514        C517   1.445       .  S
C517        N519   1.157       .  T
C518        N520   1.157       .  T
C521        C522   1.401       .  A
C521        C526   1.403       .  A
C522        C523   1.401       .  A
C522        H527   1.087       .  S
C523        C524   1.418       .  A
C523        C530   1.444       .  S
C524        C525   1.412       .  A
C525        C526   1.401       .  A
C525        H528   1.085       .  S
C526        C529   1.444       .  S
C529        N531   1.157       .  T
C530        N532   1.157       .  T
C533        C534   1.403       .  A
C533        C538   1.413       .  A
C534        C535   1.398       .  A
C534        H539   1.086       .  S
C535        C536   1.414       .  A
C535        C542   1.445       .  S
C536        C537   1.403       .  A
C537        C538   1.398       .  A
C537        H540   1.086       .  S
C538        C541   1.445       .  S
C541        N543   1.157       .  T
C542        N544   1.157       .  T
C545        C546   1.406       .  A
C545        C550   1.410       .  A
C546        C547   1.404       .  A
C546        H551   1.084       .  S
C547        C548   1.411       .  A
C547        C554   1.443       .  S
C548        C549   1.405       .  A
C549        C550   1.396       .  A
C549        H552   1.084       .  S
C550        C553   1.445       .  S
C553        N555   1.157       .  T
C554        N556   1.157       .  T
C557        C558   1.407       .  A
C557        C562   1.415       .  A
C558        C559   1.396       .  A
C558        H563   1.085       .  S
C559        C560   1.407       .  A
C559        C566   1.444       .  S
C560        C561   1.404       .  A
C561        C562   1.404       .  A
C561        H564   1.085       .  S
C562        C565   1.444       .  S
C565        N567   1.157       .  T
C566        N568   1.157       .  T
C569        C570   1.405       .  A
C569        C574   1.413   1_556  A
C570        C571   1.393   1_655  A
C570        H575   1.086       .  S
C571        C572   1.413       .  A
C571        C578   1.445       .  S
C572        C573   1.406   1_465  A
C573        C574   1.396   1_546  A
C573        H576   1.085   1_655  S
C574        C577   1.444   1_565  S
C577        N579   1.157       .  T
C578        N580   1.157       .  T
C581        C582   1.404       .  A
C581        C586   1.416       .  A
C582        C583   1.407       .  A
C582        H587   1.085       .  S
C583        C584   1.413       .  A
C583        C590   1.443   1_545  S
C584        C585   1.395       .  A
C585        C586   1.390       .  A
C585        H588   1.087   1_655  S
C586        C589   1.446       .  S
C589        N591   1.157       .  T
C590        N592   1.157       .  T
C593        C594   1.408       .  A
C593        C598   1.413       .  A
C594        C595   1.397   1_655  A
C594        H599   1.085       .  S
C595        C596   1.413       .  A
C595        C602   1.445   1_556  S
C596        C597   1.409   1_455  A
C597        C598   1.400       .  A
C597        H600   1.085       .  S
C598        C601   1.444       .  S
C601        N603   1.157       .  T
C602        N604   1.157       .  T
C605        C606   1.408       .  A
C605        C610   1.414       .  A
C606        C607   1.396       .  A
C606        H611   1.087       .  S
C607        C608   1.406       .  A
C607        C614   1.445       .  S
C608        C609   1.401       .  A
C609        C610   1.400       .  A
C609        H612   1.088       .  S
C610        C613   1.444       .  S
C613        N615   1.157       .  T
C614        N616   1.157       .  T
C617        C618   1.404   1_655  A
C617        C622   1.415       .  A
C618        C619   1.403       .  A
C618        H623   1.086       .  S
C619        C620   1.412       .  A
C619        C626   1.443       .  S
C620        C621   1.401       .  A
C621        C622   1.396   1_455  A
C621        H624   1.087       .  S
C622        C625   1.445       .  S
C625        N627   1.157       .  T
C626        N628   1.157       .  T
C629        C630   1.405       .  A
C629        C634   1.409       .  A
C630        C631   1.402       .  A
C630        H635   1.086       .  S
C631        C632   1.412       .  A
C631        C638   1.443       .  S
C632        C633   1.404       .  A
C633        C634   1.394       .  A
C633        H636   1.085       .  S
C634        C637   1.444       .  S
C637        N639   1.157       .  T
C638        N640   1.157       .  T
C641        C642   1.404       .  A
C641        C646   1.416   1_565  A
C642        C643   1.399       .  A
C642        H647   1.085       .  S
C643        C644   1.416       .  A
C643        C650   1.445       .  S
C644        C645   1.404       .  A
C645        C646   1.401   1_565  A
C645        H648   1.085       .  S
C646        C649   1.445       .  S
C649        N651   1.157       .  T
C650        N652   1.157       .  T
C653        C654   1.403       .  A
C653        C658   1.416       .  A
C654        C655   1.398       .  A
C654        H659   1.085       .  S
C655        C656   1.415       .  A
C655        C662   1.445       .  S
C656        C657   1.402       .  A
C657        C658   1.397       .  A
C657        H660   1.085       .  S
C658        C661   1.445       .  S
C661        N663   1.157       .  T
C662        N664   1.157       .  T
C665        C666   1.400       .  A
C665        C670   1.413       .  A
C666        C667   1.397       .  A
C666        H671   1.087       .  S
C667        C668   1.417       .  A
C667        C674   1.445       .  S
C668        C669   1.405       .  A
C669        C670   1.406       .  A
C669        H672   1.086       .  S
C670        C673   1.443       .  S
C673        N675   1.157       .  T
C674        N676   1.157       .  T
C677        C678   1.406       .  A
C677        C682   1.414       .  A
C678        C679   1.403       .  A
C678        H683   1.084       .  S
C679        C680   1.414       .  A
C679        C686   1.444       .  S
C680        C681   1.405       .  A
C681        C682   1.400       .  A
C681        H684   1.084       .  S
C682        C685   1.445       .  S
C685        N687   1.157       .  T
C686        N688   1.157       .  T
C689        C690   1.405       .  A
C689        C694   1.407       .  A
C690        C691   1.406       .  A
C690        H695   1.086       .  S
C691        C692   1.415       .  A
C691        C698   1.443       .  S
C692        C693   1.408       .  A
C693        C694   1.397       .  A
C693        H696   1.085       .  S
C694        C697   1.444       .  S
C697        N699   1.157       .  T
C698        N700   1.157       .  T
C701        C702   1.409       .  A
C701        C706   1.413       .  A
C702        C703   1.397       .  A
C702        H707   1.085       .  S
C703        C704   1.412       .  A
C703        C710   1.445       .  S
C704        C705   1.409       .  A
C705        C706   1.401       .  A
C705        H708   1.085       .  S
C706        C709   1.444       .  S
C709        N711   1.157       .  T
C710        N712   1.157       .  T
C713        C714   1.404       .  A
C713        C718   1.407       .  A
C714        C715   1.402       .  A
C714        H719   1.084       .  S
C715        C716   1.413       .  A
C715        C722   1.444       .  S
C716        C717   1.407       .  A
C717        C718   1.396       .  A
C717        H720   1.084       .  S
C718        C721   1.445       .  S
C721        N723   1.157       .  T
C722        N724   1.157       .  T
C725        C726   1.409       .  A
C725        C730   1.414       .  A
C726        C727   1.398       .  A
C726        H731   1.084       .  S
C727        C728   1.406       .  A
C727        C734   1.444       .  S
C728        C729   1.402       .  A
C729        C730   1.401       .  A
C729        H732   1.083       .  S
C730        C733   1.444       .  S
C733        N735   1.157       .  T
C734        N736   1.157       .  T
C737        C738   1.407       .  A
C737        C742   1.417       .  A
C738        C739   1.404       .  A
C738        H743   1.084       .  S
C739        C740   1.413       .  A
C739        C746   1.444   1_545  S
C740        C741   1.405       .  A
C741        C742   1.408       .  A
C741        H744   1.084       .  S
C742        C745   1.443       .  S
C745        N747   1.157       .  T
C746        N748   1.157       .  T
C749        C750   1.404       .  A
C749        C754   1.412       .  A
C750        C751   1.396       .  A
C750        H755   1.086       .  S
C751        C752   1.414   1_565  A
C751        C758   1.446       .  S
C752        C753   1.408   1_545  A
C753        C754   1.410       .  A
C753        H756   1.085   1_565  S
C754        C757   1.442       .  S
C757        N759   1.157       .  T
C758        N760   1.157   1_565  T
C761        C762   1.398       .  A
C761        C766   1.414       .  A
C762        C763   1.393       .  A
C762        H767   1.085   1_455  S
C763        C764   1.415       .  A
C763        C770   1.446       .  S
C764        C765   1.401       .  A
C765        C766   1.405       .  A
C765        H768   1.084       .  S
C766        C769   1.443       .  S
C769        N771   1.157   1_545  T
C770        N772   1.157       .  T
C773        C774   1.404       .  A
C773        C778   1.410       .  A
C774        C775   1.406       .  A
C774        H779   1.083       .  S
C775        C776   1.417       .  A
C775        C782   1.443       .  S
C776        C777   1.407       .  A
C777        C778   1.400       .  A
C777        H780   1.084       .  S
C778        C781   1.445       .  S
C781        N783   1.157       .  T
C782        N784   1.157       .  T
C785        C786   1.407       .  A
C785        C790   1.414       .  A
C786        C787   1.393       .  A
C786        H791   1.084       .  S
C787        C788   1.405       .  A
C787        C794   1.445       .  S
C788        C789   1.405       .  A
C789        C790   1.405       .  A
C789        H792   1.084       .  S
C790        C793   1.444       .  S
C793        N795   1.157       .  T
C794        N796   1.157       .  T
C797        C798   1.407       .  A
C797        C802   1.416       .  A
C798        C799   1.401       .  A
C798        H803   1.084       .  S
C799        C800   1.411       .  A
C799        C806   1.444       .  S
C800        C801   1.404       .  A
C801        C802   1.406       .  A
C801        H804   1.083       .  S
C802        C805   1.443       .  S
C805        N807   1.157       .  T
C806        N808   1.157       .  T
C809        C810   1.404   1_655  A
C809        C814   1.412       .  A
C810        C811   1.396   1_455  A
C810        H815   1.084       .  S
C811        C812   1.408       .  A
C811        C818   1.443       .  S
C812        C813   1.403       .  A
C813        C814   1.400       .  A
C813        H816   1.084       .  S
C814        C817   1.444       .  S
C817        N819   1.157       .  T
C818        N820   1.157       .  T
C821        C822   1.407       .  A
C821        C826   1.414       .  A
C822        C823   1.397       .  A
C822        H827   1.084       .  S
C823        C824   1.407       .  A
C823        C830   1.443       .  S
C824        C825   1.406       .  A
C825        C826   1.404       .  A
C825        H828   1.084       .  S
C826        C829   1.444       .  S
C829        N831   1.157       .  T
C830        N832   1.157       .  T
C833        C834   1.400   1_554  A
C833        C838   1.411   1_554  A
C834        C835   1.399       .  A
C834        H839   1.084   1_556  S
C835        C836   1.416       .  A
C835        C842   1.443       .  S
C836        C837   1.407       .  A
C837        C838   1.403       .  A
C837        H840   1.084   1_545  S
C838        C841   1.445   1_545  S
C841        N843   1.157       .  T
C842        N844   1.157       .  T
C845        C846   1.408   1_545  A
C845        C850   1.416   1_545  A
C846        C847   1.400       .  A
C846        H851   1.085       .  S
C847        C848   1.410       .  A
C847        C854   1.445       .  S
C848        C849   1.407       .  A
C849        C850   1.411       .  A
C849        H852   1.084       .  S
C850        C853   1.443   1_565  S
C853        N855   1.157       .  T
C854        N856   1.157       .  T
C857        C858   1.403       .  A
C857        C862   1.413       .  A
C858        C859   1.397       .  A
C858        H863   1.085       .  S
C859        C860   1.413       .  A
C859        C866   1.445       .  S
C860        C861   1.403       .  A
C861        C862   1.398       .  A
C861        H864   1.085       .  S
C862        C865   1.445       .  S
C865        N867   1.157       .  T
C866        N868   1.157       .  T
C869        C870   1.401       .  A
C869        C874   1.415       .  A
C870        C871   1.404       .  A
C870        H875   1.083       .  S
C871        C872   1.414       .  A
C871        C878   1.443   1_545  S
C872        C873   1.397       .  A
C873        C874   1.390       .  A
C873        H876   1.085       .  S
C874        C877   1.445       .  S
C877        N879   1.157       .  T
C878        N880   1.157       .  T
C881        C882   1.405       .  A
C881        C886   1.414       .  A
C882        C883   1.401       .  A
C882        H887   1.084       .  S
C883        C884   1.415       .  A
C883        C890   1.445       .  S
C884        C885   1.405       .  A
C885        C886   1.405       .  A
C885        H888   1.084       .  S
C886        C889   1.443       .  S
C889        N891   1.157       .  T
C890        N892   1.157       .  T
C893        C894   1.403       .  A
C893        C898   1.410       .  A
C894        C895   1.397       .  A
C894        H899   1.085       .  S
C895        C896   1.411       .  A
C895        C902   1.444       .  S
C896        C897   1.405       .  A
C897        C898   1.399       .  A
C897        H900   1.085       .  S
C898        C901   1.445       .  S
C901        N903   1.157       .  T
C902        N904   1.157       .  T
C905        C906   1.406       .  A
C905        C910   1.421       .  A
C906        C907   1.399       .  A
C906        H911   1.085       .  S
C907        C908   1.409       .  A
C907        C914   1.445       .  S
C908        C909   1.397       .  A
C909        C910   1.398       .  A
C909        H912   1.086       .  S
C910        C913   1.444       .  S
C913        N915   1.157       .  T
C914        N916   1.157       .  T
C917        C918   1.404   1_554  A
C917        C922   1.414   1_554  A
C918        C919   1.400       .  A
C918        H923   1.085       .  S
C919        C920   1.414       .  A
C919        C926   1.445       .  S
C920        C921   1.407       .  A
C921        C922   1.407       .  A
C921        H924   1.085       .  S
C922        C925   1.443       .  S
C925        N927   1.157   1_556  T
C926        N928   1.157       .  T
C929        C930   1.406       .  A
C929        C934   1.418       .  A
C930        C931   1.407       .  A
C930        H935   1.086       .  S
C931        C932   1.414       .  A
C931        C938   1.443       .  S
C932        C933   1.400       .  A
C933        C934   1.396       .  A
C933        H936   1.087       .  S
C934        C937   1.445       .  S
C937        N939   1.157       .  T
C938        N940   1.157       .  T
C941        C942   1.404       .  A
C941        C946   1.420       .  A
C942        C943   1.397       .  A
C942        H947   1.084       .  S
C943        C944   1.409       .  A
C943        C950   1.442       .  S
C944        C945   1.398       .  A
C945        C946   1.398       .  A
C945        H948   1.085       .  S
C946        C949   1.444       .  S
C949        N951   1.157       .  T
C950        N952   1.156       .  T
C953        C954   1.406       .  A
C953        C958   1.416       .  A
C954        C955   1.402       .  A
C954        H959   1.086       .  S
C955        C956   1.409       .  A
C955        C962   1.445       .  S
C956        C957   1.401   1_556  A
C957        C958   1.402   1_554  A
C957        H960   1.086       .  S
C958        C961   1.444   1_556  S
C961        N963   1.157       .  T
C962        N964   1.157       .  T
C965        C966   1.404       .  A
C965        C970   1.415       .  A
C966        C967   1.397   1_565  A
C966        H971   1.085       .  S
C967        C968   1.416   1_545  A
C967        C974   1.445       .  S
C968        C969   1.403   1_556  A
C969        C970   1.393   1_554  A
C969        H972   1.085       .  S
C970        C973   1.445   1_556  S
C973        N975   1.157       .  T
C974        N976   1.157       .  T
C977        C978   1.408       .  A
C977        C982   1.421       .  A
C978        C979   1.406       .  A
C978        H983   1.084       .  S
C979        C980   1.413       .  A
C979        C986   1.445   1_565  S
C980        C981   1.402       .  A
C981        C982   1.407       .  A
C981        H984   1.084       .  S
C982        C985   1.444       .  S
C985        N987   1.157       .  T
C986        N988   1.157       .  T
C989        C990   1.408       .  A
C989        C994   1.416       .  A
C990        C991   1.400       .  A
C990        H995   1.083       .  S
C991        C992   1.406       .  A
C991        C998   1.444       .  S
C992        C993   1.402       .  A
C993        C994   1.402       .  A
C993        H996   1.085       .  S
C994        C997   1.444       .  S
C997        N999   1.157       .  T
C998       N1000   1.157       .  T
C1001      C1002   1.403   1_554  A
C1001      C1006   1.416   1_554  A
C1002      C1003   1.402       .  A
C1002      H1007   1.085   1_556  S
C1003      C1004   1.417       .  A
C1003      C1010   1.445       .  S
C1004      C1005   1.406       .  A
C1005      C1006   1.410       .  A
C1005      H1008   1.084       .  S
C1006      C1009   1.443   1_556  S
C1009      N1011   1.157       .  T
C1010      N1012   1.157       .  T
C1013      C1014   1.407       .  A
C1013      C1018   1.414       .  A
C1014      C1015   1.397   1_556  A
C1014      H1019   1.085   1_556  S
C1015      C1016   1.414   1_554  A
C1015      C1022   1.445       .  S
C1016      C1017   1.409       .  A
C1017      C1018   1.404       .  A
C1017      H1020   1.085       .  S
C1018      C1021   1.444       .  S
C1021      N1023   1.157       .  T
C1022      N1024   1.157       .  T
C1025      C1026   1.405       .  A
C1025      C1030   1.416       .  A
C1026      C1027   1.411       .  A
C1026      H1031   1.084       .  S
C1027      C1028   1.416       .  A
C1027      C1034   1.443       .  S
C1028      C1029   1.398       .  A
C1029      C1030   1.392       .  A
C1029      H1032   1.085       .  S
C1030      C1033   1.445       .  S
C1033      N1035   1.157       .  T
C1034      N1036   1.157       .  T
C1037      C1038   1.402       .  A
C1037      C1042   1.413       .  A
C1038      C1039   1.402       .  A
C1038      H1043   1.084       .  S
C1039      C1040   1.413       .  A
C1039      C1046   1.444       .  S
C1040      C1041   1.402       .  A
C1041      C1042   1.403       .  A
C1041      H1044   1.084       .  S
C1042      C1045   1.444       .  S
C1045      N1047   1.157       .  T
C1046      N1048   1.157       .  T
C1049      C1050   1.401       .  A
C1049      C1054   1.413       .  A
C1050      C1051   1.396       .  A
C1050      H1055   1.086       .  S
C1051      C1052   1.416       .  A
C1051      C1058   1.445       .  S
C1052      C1053   1.405       .  A
C1053      C1054   1.406       .  A
C1053      H1056   1.086       .  S
C1054      C1057   1.442       .  S
C1057      N1059   1.157       .  T
C1058      N1060   1.157       .  T
C1061      C1062   1.404       .  A
C1061      C1066   1.417       .  A
C1062      C1063   1.395       .  A
C1062      H1067   1.086       .  S
C1063      C1064   1.408       .  A
C1063      C1070   1.444       .  S
C1064      C1065   1.399       .  A
C1065      C1066   1.397       .  A
C1065      H1068   1.086       .  S
C1066      C1069   1.444       .  S
C1069      N1071   1.157       .  T
C1070      N1072   1.157       .  T
C1073      C1074   1.404       .  A
C1073      C1078   1.412       .  A
C1074      C1075   1.409       .  A
C1074      H1079   1.085       .  S
C1075      C1076   1.417       .  A
C1075      C1082   1.443       .  S
C1076      C1077   1.406       .  A
C1077      C1078   1.400       .  A
C1077      H1080   1.085       .  S
C1078      C1081   1.445       .  S
C1081      N1083   1.157       .  T
C1082      N1084   1.157       .  T
C1085      C1086   1.404       .  A
C1085      C1090   1.414       .  A
C1086      C1087   1.394   1_655  A
C1086      H1091   1.086       .  S
C1087      C1088   1.413       .  A
C1087      C1094   1.445       .  S
C1088      C1089   1.405       .  A
C1089      C1090   1.400   1_455  A
C1089      H1092   1.086       .  S
C1090      C1093   1.444       .  S
C1093      N1095   1.157       .  T
C1094      N1096   1.157       .  T
C1097      C1098   1.405       .  A
C1097      C1102   1.419       .  A
C1098      C1099   1.402       .  A
C1098      H1103   1.086       .  S
C1099      C1100   1.413       .  A
C1099      C1106   1.445       .  S
C1100      C1101   1.401       .  A
C1101      C1102   1.404       .  A
C1101      H1104   1.086       .  S
C1102      C1105   1.444       .  S
C1105      N1107   1.157       .  T
C1106      N1108   1.157       .  T
C1109      C1110   1.406       .  A
C1109      C1114   1.413       .  A
C1110      C1111   1.400       .  A
C1110      H1115   1.084       .  S
C1111      C1112   1.412       .  A
C1111      C1118   1.444       .  S
C1112      C1113   1.405       .  A
C1113      C1114   1.400       .  A
C1113      H1116   1.084       .  S
C1114      C1117   1.444       .  S
C1117      N1119   1.157       .  T
C1118      N1120   1.157       .  T
C1121      C1122   1.405       .  A
C1121      C1126   1.407       .  A
C1122      C1123   1.405       .  A
C1122      H1127   1.085       .  S
C1123      C1124   1.415   1_455  A
C1123      C1130   1.443       .  S
C1124      C1125   1.408       .  A
C1125      C1126   1.397   1_655  A
C1125      H1128   1.084       .  S
C1126      C1129   1.444       .  S
C1129      N1131   1.157       .  T
C1130      N1132   1.157       .  T
C1133      C1134   1.402       .  A
C1133      C1138   1.413       .  A
C1134      C1135   1.402       .  A
C1134      H1139   1.084       .  S
C1135      C1136   1.413       .  A
C1135      C1142   1.444       .  S
C1136      C1137   1.403   1_565  A
C1137      C1138   1.404   1_545  A
C1137      H1140   1.084       .  S
C1138      C1141   1.444       .  S
C1141      N1143   1.157       .  T
C1142      N1144   1.157       .  T
C1145      C1146   1.404       .  A
C1145      C1150   1.417       .  A
C1146      C1147   1.402       .  A
C1146      H1151   1.084       .  S
C1147      C1148   1.415       .  A
C1147      C1154   1.444       .  S
C1148      C1149   1.403       .  A
C1149      C1150   1.400       .  A
C1149      H1152   1.084       .  S
C1150      C1153   1.445       .  S
C1153      N1155   1.157       .  T
C1154      N1156   1.157       .  T
C1157      C1158   1.397       .  A
C1157      C1162   1.413       .  A
C1158      C1159   1.391       .  A
C1158      H1163   1.085       .  S
C1159      C1160   1.416       .  A
C1159      C1166   1.446       .  S
C1160      C1161   1.403       .  A
C1161      C1162   1.406       .  A
C1161      H1164   1.084       .  S
C1162      C1165   1.443       .  S
C1165      N1167   1.157       .  T
C1166      N1168   1.157       .  T
C1169      C1170   1.404       .  A
C1169      C1174   1.409       .  A
C1170      C1171   1.408       .  A
C1170      H1175   1.085       .  S
C1171      C1172   1.417       .  A
C1171      C1178   1.443       .  S
C1172      C1173   1.407       .  A
C1173      C1174   1.397       .  A
C1173      H1176   1.085       .  S
C1174      C1177   1.446       .  S
C1177      N1179   1.157       .  T
C1178      N1180   1.157       .  T
C1181      C1182   1.410   1_665  A
C1181      C1186   1.415       .  A
C1182      C1183   1.405   1_545  A
C1182      H1187   1.084       .  S
C1183      C1184   1.414       .  A
C1183      C1190   1.444   1_565  S
C1184      C1185   1.406       .  A
C1185      C1186   1.395   1_455  A
C1185      H1188   1.085       .  S
C1186      C1189   1.445       .  S
C1189      N1191   1.157       .  T
C1190      N1192   1.157       .  T
C1193      C1194   1.397       .  A
C1193      C1198   1.414       .  A
C1194      C1195   1.388       .  A
C1194      H1199   1.085       .  S
C1195      C1196   1.413       .  A
C1195      C1202   1.445       .  S
C1196      C1197   1.404       .  A
C1197      C1198   1.407       .  A
C1197      H1200   1.083       .  S
C1198      C1201   1.443       .  S
C1201      N1203   1.157       .  T
C1202      N1204   1.157       .  T
C1205      C1206   1.408       .  A
C1205      C1210   1.415       .  A
C1206      C1207   1.398       .  A
C1206      H1211   1.084   1_655  S
C1207      C1208   1.408       .  A
C1207      C1214   1.445       .  S
C1208      C1209   1.403       .  A
C1209      C1210   1.402       .  A
C1209      H1212   1.085       .  S
C1210      C1213   1.444       .  S
C1213      N1215   1.157       .  T
C1214      N1216   1.157       .  T
