geometry optimzed in LAMMPS
_audit_creation_date              2020-12-01 
_audit_creation_method            'lammps2cif' 
_symmetry_space_group_name_H-M    'P1' 
_symmetry_Int_Tables_number       1 
_symmetry_cell_setting            triclinic 
loop_ 
_symmetry_equiv_pos_as_xyz 
  x,y,z 
_cell_length_a                    28.60778511 
_cell_length_b                    27.945807980476147 
_cell_length_c                    45.06609181880714 
_cell_angle_alpha                 89.88871077231393 
_cell_angle_beta                  90.25156306946208 
_cell_angle_gamma                 90.04805809864318 
loop_ 
_atom_site_label 
_atom_site_type_symbol 
_atom_site_fract_x 
_atom_site_fract_y 
_atom_site_fract_z 
_atom_site_charge 
C1          C  0.80407678  0.64223620  0.32577171     0.04200
C2          C  0.82527626  0.61585901  0.34881741    -0.11900
C3          C  0.87027956  0.62791892  0.35933513     0.01700
C4          C  0.89343605  0.66732906  0.34652512    -0.10500
C5          C  0.87141998  0.69492465  0.32459110     0.04200
C6          C  0.82700900  0.68233828  0.31436369    -0.09900
H7          H  0.80674175  0.58580669  0.35839880     0.09800
H8          H  0.92844513  0.67681907  0.35366733     0.07300
H9          H  0.81016331  0.70403890  0.29745222     0.07200
C10         C  0.74338690  0.81823543  0.07510642     0.04200
C11         C  0.71831203  0.84514925  0.05394443    -0.11900
C12         C  0.67112773  0.83435536  0.04724819     0.01700
C13         C  0.65094971  0.79368077  0.06084937    -0.10500
C14         C  0.67681579  0.76463726  0.08056784     0.04200
C15         C  0.72285525  0.77751926  0.08764155    -0.09900
H16         H  0.73482823  0.87625662  0.04419850     0.09800
H17         H  0.61443355  0.78541684  0.05703733     0.07300
H18         H  0.74162766  0.75775865  0.10464153     0.07200
C19         C  0.34210065  0.74924087  0.35486586     0.04200
C20         C  0.30475402  0.76885406  0.33883728    -0.11900
C21         C  0.29324810  0.81717314  0.34191246     0.01700
C22         C  0.32150466  0.84647527  0.35999858    -0.10500
C23         C  0.35672720  0.82745148  0.37885497     0.04200
C24         C  0.36479848  0.77734992  0.37670993    -0.09900
H25         H  0.28671344  0.74738655  0.32236020     0.09800
H26         H  0.31595387  0.88458624  0.35862253     0.07300
H27         H  0.39009604  0.75974778  0.39074740     0.07200
C28         C  0.86112900  0.28066021  0.09670750     0.04200
C29         C  0.88511880  0.30595036  0.07451808    -0.11900
C30         C  0.86984873  0.35188685  0.06556013     0.01700
C31         C  0.82891364  0.37068385  0.07830712    -0.10500
C32         C  0.80366657  0.34392118  0.09912489     0.04200
C33         C  0.82009968  0.29947079  0.10842979    -0.09900
H34         H  0.91635027  0.29053123  0.06497858     0.09800
H35         H  0.81681789  0.40614937  0.07232404     0.07300
H36         H  0.80086191  0.27940972  0.12501279     0.07200
C37         C  0.13854361  0.90429928  0.27583511     0.43500
N38         N  0.10664605  0.95065243  0.24332447     0.02400
C39         C  0.89006479  0.06141229  0.24934649    -0.05500
H40         H  0.88667753  0.87909277  0.23103812     0.07900
C41         C  0.94946607  0.90872211  0.13139216    -0.05800
Co42       Co  0.01669374  0.99295349  0.26361958     0.74200
N43         N  0.93889557  0.93264808  0.24117452    -0.25000
Co44       Co  0.93271677  0.98595394  0.20834348     0.74100
C45         C  0.90457127  0.88913560  0.14176382     0.43600
N46         N  0.07121867  0.94015029  0.15698603     0.02000
N47         N  0.93497047  0.93436568  0.17551067     0.02100
N48         N  0.94157547  0.06088077  0.28734030    -0.45800
H49         H  0.07599228  0.91385086  0.30755143     0.07900
N50         N  0.97123128  0.93542260  0.26220739     0.02400
N51         N  0.93197287  0.03942449  0.17495508     0.02200
C52         C  0.91704666  0.09944005  0.14690419     0.43800
N53         N  0.10378681  0.94444819  0.17777437    -0.24400
C54         C  0.06207760  0.08992540  0.27835859    -0.05400
N55         N  0.14453532  0.92524641  0.24915761    -0.45500
N56         N  0.90281163  0.07606737  0.17167497    -0.45800
C57         C  0.09837404  0.11942167  0.26551416     0.43500
N58         N  0.95829117  0.03784556  0.26390600     0.02400
N59         N  0.09800741  0.04805278  0.17419686    -0.24500
N60         N  0.07535723  0.94824865  0.26458616    -0.25000
N61         N  0.06812795  0.04273926  0.15216211     0.02100
H62         H  0.16373077  0.08446546  0.17799196     0.07900
H63         H  0.97949464  0.08412961  0.11666503     0.08000
N64         N  0.92799592  0.03634137  0.24186543    -0.25000
N65         N  0.96545920  0.93635480  0.15377721    -0.24600
N66         N  0.09366286  0.05472448  0.24057426     0.02400
C67         C  0.93643294  0.86954957  0.27093984     0.43800
C68         C  0.13449206  0.90862170  0.17470821    -0.05900
N69         N  0.96444241  0.03888362  0.15413551    -0.24600
H70         H  0.96402105  0.90783769  0.10929226     0.08000
N71         N  0.97076991  0.89856987  0.28063984    -0.45800
H72         H  0.16494128  0.90236538  0.18847705     0.08000
C73         C  0.12163587  0.08915111  0.13465718     0.43700
C74         C  0.09223910  0.91962496  0.28621382    -0.05400
Co75       Co  0.10135117  0.99984960  0.20906368     0.73800
N76         N  0.07795309  0.90312562  0.13938990    -0.45600
C77         C  0.89840782  0.07689161  0.27989013     0.43900
N78         N  0.11684717  0.09580194  0.24217970    -0.45500
Co79       Co  0.01736688  0.98918713  0.15381271     0.73900
C80         C  0.95772882  0.07518661  0.13544301    -0.05900
C81         C  0.91505925  0.89174669  0.24487913    -0.05400
N82         N  0.06144679  0.05086638  0.26142848    -0.25000
N83         N  0.89887911  0.90663819  0.16931980    -0.45700
H84         H  0.85782503  0.06218595  0.23673274     0.07900
C85         C  0.13166903  0.07823752  0.16577241    -0.05800
Cl86       Cl  0.01701104  0.99196148  0.20870681    -0.48800
C87         C  0.11709422  0.88162252  0.14928189     0.43700
H88         H  0.03911811  0.09719062  0.29680559     0.09900
N89         N  0.08162161  0.06572320  0.12784103    -0.45600
C90         C  0.24127872  0.64879142  0.09024692     0.04200
C91         C  0.21604135  0.62573540  0.06764739    -0.11900
C92         C  0.16925685  0.63901043  0.06128969     0.01700
C93         C  0.15057056  0.67819280  0.07725883    -0.10500
C94         C  0.17861308  0.70502937  0.09670744     0.04200
C95         C  0.22361101  0.68984387  0.10330368    -0.09900
H96         H  0.23282642  0.59670388  0.05607186     0.09800
H97         H  0.11424443  0.68820506  0.07496840     0.07300
H98         H  0.24410982  0.70863588  0.11991925     0.07200
C99         C  0.74388213  0.14061721  0.35261452     0.04200
C100        C  0.71787181  0.11669544  0.37470071    -0.11900
C101        C  0.67134854  0.13066178  0.38122809     0.01700
C102        C  0.65343715  0.17127957  0.36620600    -0.10500
C103        C  0.68082583  0.19808545  0.34638590     0.04200
C104        C  0.72555300  0.18174892  0.33928259    -0.09900
H105        H  0.73371541  0.08647218  0.38581806     0.09800
H106        H  0.61758849  0.18216060  0.36954106     0.07300
H107        H  0.74540110  0.19992208  0.32218040     0.07200
C108        C  0.15406064  0.36164791  0.35326722     0.04200
C109        C  0.12947785  0.32698150  0.33647243    -0.11900
C110        C  0.15161742  0.30213582  0.31350825     0.01700
C111        C  0.19642297  0.31504581  0.30489432    -0.10500
C112        C  0.22088149  0.35054120  0.32005377     0.04200
C113        C  0.20059277  0.37232866  0.34501173    -0.09900
H114        H  0.09374012  0.31773693  0.34177852     0.09800
H115        H  0.21342099  0.29547400  0.28719065     0.07300
H116        H  0.22129450  0.39721950  0.35791643     0.07200
C117        C  0.35643919  0.14104476  0.04464802     0.04200
C118        C  0.30823747  0.13004746  0.04667983    -0.11900
C119        C  0.27925352  0.15426103  0.06682992     0.01700
C120        C  0.29616877  0.19465047  0.08160966    -0.10500
C121        C  0.34303859  0.20810592  0.07909154     0.04200
C122        C  0.37333019  0.17995566  0.06183679    -0.09900
H123        H  0.29327048  0.10102965  0.03398593     0.09800
H124        H  0.27359171  0.21368560  0.09681708     0.07300
H125        H  0.41030372  0.18803919  0.06258022     0.07200
C126        C  0.62468778  0.58076047  0.27963384     0.43500
N127        N  0.56406591  0.56618038  0.25314062     0.02400
C128        C  0.43166247  0.36273305  0.25019700    -0.05500
H129        H  0.60459674  0.32789014  0.23628761     0.07900
C130        C  0.60076050  0.44021076  0.14131804    -0.05800
Co131      Co  0.51829237  0.47561909  0.27225449     0.74200
N132        N  0.57098231  0.39471750  0.24548696    -0.25000
Co133      Co  0.51978629  0.39589938  0.21317258     0.74100
C134        C  0.62820136  0.39926873  0.15057972     0.43600
N135        N  0.55640329  0.54821552  0.16425270     0.02000
N136        N  0.56992303  0.40564851  0.17970743     0.02100
N137        N  0.43423091  0.41586125  0.28795789    -0.45800
H138        H  0.61495476  0.51250855  0.30744699     0.07900
N139        N  0.57007253  0.42280586  0.26889887     0.02400
N140        N  0.46867375  0.39516515  0.18052526     0.02200
C141        C  0.42003252  0.36762000  0.14789338     0.43800
N142        N  0.55601250  0.57694646  0.18738040    -0.24400
C143        C  0.43961751  0.54025792  0.29978992    -0.05400
N144        N  0.59870007  0.59731248  0.25664265    -0.45500
N145        N  0.44327226  0.35735120  0.17326451    -0.45800
C146        C  0.41779876  0.58609143  0.29173201     0.43500
N147        N  0.46944770  0.42177261  0.26950298     0.02400
N148        N  0.45488887  0.56713843  0.18990771    -0.24500
N149        N  0.56685066  0.53019275  0.27217317    -0.25000
N150        N  0.45612534  0.53596883  0.16787579     0.02100
H151        H  0.40613448  0.62375239  0.20046334     0.07900
H152        H  0.42575223  0.43796326  0.12068418     0.08000
N153        N  0.46903454  0.39136770  0.24703667    -0.25000
N154        N  0.56559933  0.44144677  0.16066142    -0.24600
N155        N  0.46188886  0.56200903  0.25608833     0.02400
C156        C  0.61713626  0.36540828  0.28071786     0.43800
C157        C  0.58244284  0.61528793  0.18171883    -0.05900
N158        N  0.46503271  0.43023048  0.16114518    -0.24600
H159        H  0.60642901  0.46507897  0.12327309     0.08000
N160        N  0.59623650  0.40566713  0.29091149    -0.45800
H161        H  0.58545281  0.64631898  0.19590350     0.08000
C162        C  0.39408369  0.57561787  0.15956004     0.43700
C163        C  0.60390070  0.53636108  0.28984193    -0.05400
Co164      Co  0.50917627  0.56878110  0.22172065     0.73800
N165        N  0.58067312  0.56656986  0.14183315    -0.45600
C166        C  0.40903551  0.37897253  0.27751563     0.43900
N167        N  0.43372958  0.59686146  0.26442087    -0.45500
Co168      Co  0.51073762  0.48909171  0.16301327     0.73900
C169        C  0.43434680  0.41680317  0.14000410    -0.05900
C170        C  0.60104002  0.35905052  0.25030467    -0.05400
N171        N  0.46639623  0.52831306  0.27638228    -0.25000
N172        N  0.60766922  0.37947693  0.17461976    -0.45700
H173        H  0.42109988  0.33498714  0.23499306     0.07900
C174        C  0.41647029  0.59430237  0.18641881    -0.05800
Cl175      Cl  0.51451221  0.48234514  0.21752791    -0.48800
C176        C  0.59834009  0.60900507  0.15131358     0.43700
H177        H  0.43950567  0.52202394  0.32098568     0.07900
N178        N  0.42084978  0.54015354  0.14913858    -0.45600
C179        C  0.46894109  0.96368591  0.45072054     0.03400
C180        C  0.46669681  0.96545555  0.48216072     0.03300
C181        C  0.49590606  0.99732556  0.49761708    -0.17200
C182        C  0.52927281  0.02561778  0.48311213     0.03400
C183        C  0.53220457  0.02414132  0.45167574     0.03300
C184        C  0.50118562  0.99372357  0.43593419    -0.17200
H185        H  0.50347970  0.99196223  0.41197596     0.05400
H186        H  0.49461475  0.99795283  0.52165915     0.05400
C187        C  0.98657754  0.46221960  0.95338268     0.03400
C188        C  0.98273158  0.46907583  0.98471150     0.03300
C189        C  0.01065433  0.50436468  0.99833621    -0.17200
C190        C  0.04413305  0.53071761  0.98266154     0.03400
C191        C  0.04834113  0.52429121  0.95164888     0.03300
C192        C  0.01989318  0.48981693  0.93762352    -0.17200
H193        H  0.02334483  0.48482905  0.91387512     0.05400
H194        H  0.00782473  0.51001117  0.02207990     0.05400
C195        C  0.97899523  0.51635228  0.44445135     0.03400
C196        C  0.97553547  0.51152065  0.47581341     0.03300
C197        C  0.00589703  0.47886022  0.49027303    -0.17200
C198        C  0.04040502  0.45312860  0.47472631     0.03400
C199        C  0.04419338  0.45939763  0.44363902     0.03300
C200        C  0.01369418  0.49091576  0.42926823    -0.17200
H201        H  0.01651441  0.49515918  0.40539323     0.05400
H202        H  0.00376503  0.47462433  0.51414734     0.05400
C203        C  0.55169024  0.96303400  0.97599977     0.03400
C204        C  0.55438754  0.96714377  0.94447481     0.03300
C205        C  0.52584346  0.00112221  0.93000030    -0.17200
C206        C  0.49262444  0.02836360  0.94527722     0.03400
C207        C  0.49015167  0.02484506  0.97654094     0.03300
C208        C  0.51970899  0.99235146  0.99137733    -0.17200
H209        H  0.51725906  0.98934361  0.01531222     0.05400
H210        H  0.52769065  0.00466447  0.90606416     0.05400
C211        C  0.72990848  0.83009751  0.83403396     0.04200
C212        C  0.71182099  0.78612958  0.82519998    -0.11900
C213        C  0.67062754  0.76856422  0.83742820     0.01700
C214        C  0.64845879  0.79408273  0.86014685    -0.10500
C215        C  0.66474013  0.83995434  0.86841376     0.04200
C216        C  0.70574553  0.85765077  0.85498597    -0.09900
H217        H  0.72917369  0.76604273  0.80786383     0.09800
H218        H  0.61719601  0.77937788  0.87011437     0.07300
H219        H  0.71840291  0.89318388  0.86023455     0.07200
C220        C  0.78997592  0.32368316  0.85420826     0.04200
C221        C  0.81564667  0.35090496  0.87487916    -0.11900
C222        C  0.86147698  0.33742926  0.88327463     0.01700
C223        C  0.87963738  0.29426425  0.87172256    -0.10500
C224        C  0.85327135  0.26575749  0.85198544     0.04200
C225        C  0.80874452  0.28116741  0.84326210    -0.09900
H226        H  0.80060019  0.38371281  0.88325483     0.09800
H227        H  0.91498278  0.28353308  0.87725529     0.07300
H228        H  0.78957861  0.26130335  0.82651131     0.07200
C229        C  0.36541219  0.12785654  0.86342412     0.04200
C230        C  0.31735905  0.11748642  0.85860144    -0.11900
C231        C  0.29262590  0.13931412  0.83509945     0.01700
C232        C  0.31340763  0.17591837  0.81887235    -0.10500
C233        C  0.35942722  0.18877300  0.82437061     0.04200
C234        C  0.38624226  0.16251112  0.84470983    -0.09900
H235        H  0.29878050  0.09268844  0.87267569     0.09800
H236        H  0.29343033  0.19494878  0.80208197     0.07300
H237        H  0.42311004  0.17062929  0.84627538     0.07200
C238        C  0.18900427  0.71533429  0.84898047     0.04200
C239        C  0.23564110  0.70207084  0.84476867    -0.11900
C240        C  0.25284368  0.65952104  0.85679083     0.01700
C241        C  0.22515316  0.63343610  0.87693559    -0.10500
C242        C  0.17727022  0.64454190  0.88109455     0.04200
C243        C  0.15960276  0.68526404  0.86578672    -0.09900
H244        H  0.25744903  0.72272723  0.82986054     0.09800
H245        H  0.24093618  0.60312036  0.88795163     0.07300
H246        H  0.12263366  0.69326510  0.86600520     0.07200
C247        C  0.16946286  0.33980645  0.54867732     0.04200
C248        C  0.14882088  0.30165179  0.56475519    -0.11900
C249        C  0.17498289  0.27290645  0.58426430     0.01700
C250        C  0.22053451  0.28647497  0.59154219    -0.10500
C251        C  0.24110587  0.32616937  0.57795909     0.04200
C252        C  0.21706927  0.35007944  0.55491916    -0.09900
H253        H  0.11201069  0.29385158  0.56249044     0.09800
H254        H  0.23929031  0.26724932  0.60878872     0.07300
H255        H  0.23576874  0.37729241  0.54282355     0.07200
C256        C  0.65187933  0.17921234  0.61177223     0.04200
C257        C  0.62645359  0.15364096  0.59042047    -0.11900
C258        C  0.64880758  0.12070802  0.57130708     0.01700
C259        C  0.69687215  0.11119834  0.57672309    -0.10500
C260        C  0.72024927  0.13217024  0.60104006     0.04200
C261        C  0.69787822  0.16687424  0.61786570    -0.09900
H262        H  0.58959649  0.16137940  0.58821620     0.09800
H263        H  0.71659891  0.08798542  0.56231695     0.07300
H264        H  0.71693330  0.18561568  0.63517347     0.07200
C265        C  0.40599330  0.58113639  0.78734408     0.43500
N266        N  0.43297193  0.53648061  0.75243188     0.02400
C267        C  0.63585581  0.40100903  0.75367981    -0.05500
H268        H  0.65797246  0.58315975  0.73827649     0.07900
C269        C  0.58364975  0.56121795  0.63833408    -0.05800
Co270      Co  0.51857990  0.48301943  0.77151991     0.74200
N271        N  0.60061936  0.53506570  0.74790267    -0.25000
Co272      Co  0.59902727  0.48162485  0.71479621     0.74100
C273        C  0.63015329  0.57745887  0.64804222     0.43600
N274        N  0.46262004  0.54045033  0.66437279     0.02000
N275        N  0.59958061  0.53287694  0.68176272     0.02100
N276        N  0.58943623  0.40769838  0.79372432    -0.45800
H277        H  0.46827951  0.56246800  0.81783204     0.07900
N278        N  0.56935085  0.53466309  0.76943623     0.02400
N279        N  0.59264686  0.42810920  0.68230525     0.02200
C280        C  0.59837998  0.36366613  0.65717792     0.43800
N281        N  0.43087637  0.54084609  0.68568418    -0.24400
C282        C  0.46296103  0.39346119  0.78840126    -0.05400
N283        N  0.39738652  0.56397060  0.75990299    -0.45500
N284        N  0.61715168  0.38798051  0.68023110    -0.45800
C285        C  0.42176941  0.36938481  0.77719235     0.43500
N286        N  0.57231044  0.43206750  0.77075547     0.02400
N287        N  0.42612477  0.43698355  0.68464351    -0.24500
N288        N  0.46511427  0.53392949  0.77340531    -0.25000
N289        N  0.45542170  0.43741561  0.66221287     0.02100
H290        H  0.35858955  0.40513301  0.69109681     0.07900
H291        H  0.53594507  0.38319009  0.62737716     0.08000
N292        N  0.60039173  0.43048718  0.74777592    -0.25000
N293        N  0.56765627  0.53359351  0.66062698    -0.24600
N294        N  0.43356686  0.43168131  0.75070546     0.02400
C295        C  0.61141894  0.59531408  0.77935596     0.43800
C296        C  0.40200942  0.57802349  0.68079146    -0.05900
N297        N  0.55894373  0.43057061  0.66220370    -0.24600
H298        H  0.56735581  0.56472582  0.61673429     0.08000
N299        N  0.57455378  0.56979940  0.78862749    -0.45800
H300        H  0.37200493  0.58742983  0.69406883     0.08000
C301        C  0.39863041  0.39228384  0.64782309     0.43700
C302        C  0.45139113  0.56129074  0.79632602    -0.05400
Co303      Co  0.43009177  0.48655575  0.71848914     0.73800
N304        N  0.45718454  0.57536549  0.64482623    -0.45600
C305        C  0.62995397  0.38723388  0.78466122     0.43900
N306        N  0.40518524  0.39442795  0.75367920    -0.45500
Co307      Co  0.51122141  0.48578983  0.66180776     0.73900
C308        C  0.56009252  0.39163930  0.64514104    -0.05900
C309        C  0.62892611  0.57289033  0.75219146    -0.05400
N310        N  0.46764705  0.43130027  0.77063874    -0.25000
N311        N  0.63702589  0.55830116  0.67513067    -0.45700
H312        H  0.66619682  0.39666485  0.73971247     0.07900
C313        C  0.39011548  0.40841132  0.67807796    -0.05800
Cl314      Cl  0.51468439  0.48452177  0.71663623    -0.48800
C315        C  0.41963604  0.60037259  0.65365209     0.43700
H316        H  0.48598246  0.38381450  0.80654576     0.07900
N317        N  0.43969541  0.41205477  0.63936523    -0.45600
C318        C  0.78796423  0.64878165  0.57937177     0.04200
C319        C  0.81531836  0.62095678  0.56006488    -0.11900
C320        C  0.85640193  0.63945641  0.54704480     0.01700
C321        C  0.86947073  0.68697306  0.55407836    -0.10500
C322        C  0.84396605  0.71389492  0.57488755     0.04200
C323        C  0.80279605  0.69502098  0.58672386    -0.09900
H324        H  0.80526510  0.58415578  0.55607920     0.09800
H325        H  0.90096516  0.70227385  0.54481157     0.07300
H326        H  0.78404510  0.71506314  0.60345804     0.07200
C327        C  0.29848612  0.83586758  0.60010879     0.04200
C328        C  0.31413953  0.79051306  0.60813577    -0.11900
C329        C  0.35331706  0.77092109  0.59462285     0.01700
C330        C  0.37539052  0.79563354  0.57141924    -0.10500
C331        C  0.36167733  0.84278656  0.56387638     0.04200
C332        C  0.32339599  0.86285911  0.57919715    -0.09900
H333        H  0.29617547  0.77066250  0.62537528     0.09800
H334        H  0.40394796  0.77837765  0.55999440     0.07300
H335        H  0.31269243  0.89941231  0.57510051     0.07200
C336        C  0.89670928  0.89481176  0.77509884     0.43500
N337        N  0.95741381  0.90521116  0.74850197     0.02400
C338        C  0.09627992  0.10675262  0.75250880    -0.05500
H339        H  0.92703614  0.14470817  0.73786052     0.07900
C340        C  0.92583549  0.03975717  0.63939605    -0.05800
Co341      Co  0.00962206  0.99152321  0.76901011     0.74200
N342        N  0.95913442  0.07632775  0.74498417    -0.25000
Co343      Co  0.00972723  0.07494997  0.71254934     0.74100
C344        C  0.90063815  0.08164880  0.64919917     0.43600
N345        N  0.96408491  0.92857921  0.65947756     0.02000
N346        N  0.95871267  0.07038518  0.67849948     0.02100
N347        N  0.09364517  0.04918309  0.78790994    -0.45800
H348        H  0.91236337  0.96053578  0.80382711     0.07900
N349        N  0.96004027  0.04654643  0.76763890     0.02400
N350        N  0.06064266  0.07424225  0.68043064     0.02200
C351        C  0.10376865  0.10613198  0.64686029     0.43800
N352        N  0.96222361  0.89916558  0.68229867    -0.24400
C353        C  0.08962925  0.92373137  0.79237682    -0.05400
N354        N  0.92088270  0.87646145  0.75202519    -0.45500
N355        N  0.08571212  0.11246494  0.67404112    -0.45800
C356        C  0.10787888  0.87642488  0.78365303     0.43500
N357        N  0.06050877  0.04337241  0.76777997     0.02400
N358        N  0.06424317  0.90191123  0.68445081    -0.24500
N359        N  0.95801142  0.94032197  0.76810565    -0.25000
N360        N  0.06471485  0.93446150  0.66309151     0.02100
H361        H  0.11068333  0.84326782  0.69470575     0.07900
H362        H  0.09012796  0.04301961  0.61503397     0.08000
N363        N  0.06086739  0.07632578  0.74669850    -0.25000
N364        N  0.96091005  0.03556777  0.65873469    -0.24600
N365        N  0.05906980  0.90223374  0.75065989     0.02400
C366        C  0.91522586  0.10424579  0.78151644     0.43800
C367        C  0.93277212  0.86349010  0.67608660    -0.05900
N368        N  0.06076157  0.04202897  0.65909451    -0.24600
H369        H  0.91876268  0.01611305  0.62094263     0.08000
N370        N  0.93511602  0.06256869  0.79031975    -0.45800
H371        H  0.92745801  0.83234483  0.68995330     0.08000
C372        C  0.12518566  0.89243841  0.65463257     0.43700
C373        C  0.92102407  0.93669824  0.78580194    -0.05400
Co374      Co  0.01058940  0.90122213  0.71651196     0.73800
N375        N  0.93919688  0.91256586  0.63653166    -0.45600
C376        C  0.11734502  0.08867707  0.78007716     0.43900
N377        N  0.08682861  0.86611895  0.75759275    -0.45500
Co378      Co  0.01279524  0.98502992  0.65960299     0.73900
C379        C  0.08747278  0.05889230  0.63683195    -0.05900
C380        C  0.93033144  0.11250450  0.75106039    -0.05400
N381        N  0.05917538  0.93618452  0.77084599    -0.25000
N382        N  0.92231866  0.09891718  0.67373736    -0.45700
H383        H  0.10577887  0.13762337  0.73933794     0.07900
C384        C  0.10164934  0.87350241  0.68093185    -0.05800
Cl385      Cl  0.01078888  0.98819935  0.71441784    -0.48800
C386        C  0.91837264  0.87126213  0.64534286     0.43700
H387        H  0.09569676  0.94408460  0.81234541     0.07900
N388        N  0.10033720  0.93001910  0.64479358    -0.45600
C389        C  0.16951803  0.87719713  0.64102444    -0.04300
C390        C  0.21172618  0.88019815  0.65720455    -0.01400
C391        C  0.25430390  0.86811077  0.64354228     0.03600
C392        C  0.25483154  0.85383392  0.61352638    -0.04300
C393        C  0.21267342  0.85149237  0.59722495    -0.01400
C394        C  0.17009939  0.86329052  0.61092672     0.03600
C395        C  0.21157895  0.89763968  0.68748450     0.38300
C396        C  0.21285104  0.83497526  0.56671161     0.38200
C397        C  0.12669124  0.85982667  0.59425408     0.36700
C398        C  0.29763619  0.87016601  0.66033191     0.36700
N399        N  0.09210603  0.85696258  0.58095103    -0.38100
N400        N  0.33224628  0.87158968  0.67369147    -0.38100
N401        N  0.21279512  0.82151612  0.54244220    -0.37600
N402        N  0.21139811  0.91185886  0.71157964    -0.37600
C403        C  0.86573731  0.75574006  0.59013178    -0.04300
C404        C  0.89977516  0.74706825  0.61218323    -0.01400
C405        C  0.91999091  0.78527075  0.62795795     0.03600
C406        C  0.90223082  0.83245110  0.62473563    -0.04300
C407        C  0.86748142  0.84117465  0.60290620    -0.01400
C408        C  0.84989244  0.80301882  0.58530431     0.03600
C409        C  0.91120095  0.69822703  0.62057902     0.38300
C410        C  0.84856595  0.88895579  0.59929623     0.38200
C411        C  0.81441358  0.81199991  0.56293185     0.36700
C412        C  0.96013251  0.77536996  0.64679891     0.36700
N413        N  0.78609028  0.81908708  0.54504440    -0.38100
N414        N  0.99220555  0.76707391  0.66168342    -0.38100
N415        N  0.83331789  0.92705457  0.59647321    -0.37600
N416        N  0.91939709  0.65935055  0.62779787    -0.37600
C417        C  0.40255537  0.64374800  0.63829847    -0.04300
C418        C  0.36805311  0.64028498  0.61589395    -0.01400
C419        C  0.35293462  0.68174130  0.60073352     0.03600
C420        C  0.37315401  0.72648462  0.60740171    -0.04300
C421        C  0.40827237  0.72975923  0.62943324    -0.01400
C422        C  0.42298672  0.68844942  0.64480017     0.03600
C423        C  0.34844510  0.59410465  0.60816154     0.38300
C424        C  0.42791408  0.77601729  0.63712216     0.38200
C425        C  0.45891161  0.69193522  0.66752662     0.36700
C426        C  0.31598231  0.67871359  0.57866356     0.36700
N427        N  0.48754256  0.69462154  0.68566969    -0.38100
N428        N  0.28636550  0.67659977  0.56113689    -0.38100
N429        N  0.44337086  0.81295747  0.64335032    -0.37600
N430        N  0.33275909  0.55744485  0.60156274    -0.37600
C431        C  0.66967418  0.59396555  0.62893257    -0.04300
C432        C  0.66381224  0.63280597  0.60915230    -0.01400
C433        C  0.70201501  0.64974414  0.59225893     0.03600
C434        C  0.74654781  0.62805310  0.59494670    -0.04300
C435        C  0.75223878  0.58862996  0.61426855    -0.01400
C436        C  0.71410394  0.57139477  0.63092954     0.03600
C437        C  0.61892403  0.65667588  0.60698110     0.38300
C438        C  0.79794901  0.56674804  0.61799608     0.38200
C439        C  0.72108536  0.52980500  0.64981924     0.36700
C440        C  0.69554882  0.68985224  0.57217654     0.36700
N441        N  0.72692808  0.49676138  0.66491282    -0.38100
N442        N  0.69052634  0.72197756  0.55623829    -0.38100
N443        N  0.83434188  0.54925221  0.62091737    -0.37600
N444        N  0.58312892  0.67577538  0.60525499    -0.37600
C445        C  0.63465296  0.22536062  0.62331233    -0.04300
C446        C  0.63963691  0.26655457  0.60539929    -0.01400
C447        C  0.62814350  0.31179699  0.61671698     0.03600
C448        C  0.61327390  0.31637414  0.64635556    -0.04300
C449        C  0.60953730  0.27543729  0.66462087    -0.01400
C450        C  0.61966173  0.22978982  0.65294470     0.03600
C451        C  0.65892397  0.26264858  0.57573967     0.38300
C452        C  0.59476731  0.28025239  0.69522079     0.38200
C453        C  0.61475048  0.18741265  0.67127761     0.36700
C454        C  0.63335033  0.35397184  0.59814702     0.36700
N455        N  0.61065908  0.15352403  0.68584002    -0.38100
N456        N  0.63752559  0.38763159  0.58339186    -0.38100
N457        N  0.58323711  0.28421684  0.71967898    -0.37600
N458        N  0.67473024  0.25949552  0.55222995    -0.37600
C459        C  0.76776283  0.11739165  0.61057447    -0.04300
C460        C  0.77324088  0.07458722  0.62690400    -0.01400
C461        C  0.81648146  0.06372537  0.64030375     0.03600
C462        C  0.85428070  0.09597638  0.63788819    -0.04300
C463        C  0.84878965  0.13911767  0.62202830    -0.01400
C464        C  0.80564111  0.14972029  0.60823343     0.03600
C465        C  0.73363343  0.04294603  0.63134417     0.38300
C466        C  0.88765055  0.17228669  0.61973319     0.38200
C467        C  0.79990345  0.19412351  0.59190324     0.36700
C468        C  0.82171046  0.02000715  0.65749130     0.36700
N469        N  0.79516749  0.22956167  0.57890920    -0.38100
N470        N  0.82616942  0.98529654  0.67126640    -0.38100
N471        N  0.91867797  0.19874204  0.61803647    -0.37600
N472        N  0.70201899  0.01785530  0.63516294    -0.37600
C473        C  0.15420086  0.22946032  0.59833865    -0.04300
C474        C  0.17423015  0.18381210  0.59347825    -0.01400
C475        C  0.15704163  0.14311055  0.60860738     0.03600
C476        C  0.11902545  0.14748993  0.62824394    -0.04300
C477        C  0.09669294  0.19264536  0.63122314    -0.01400
C478        C  0.11499525  0.23350917  0.61701864     0.03600
C479        C  0.21235659  0.17859902  0.57262665     0.38300
C480        C  0.05385575  0.19732057  0.64816404     0.38200
C481        C  0.09429531  0.28007385  0.62251065     0.36700
C482        C  0.17931569  0.09701046  0.60450591     0.36700
N483        N  0.07783025  0.31720818  0.62685661    -0.38100
N484        N  0.19701262  0.06018927  0.60119357    -0.38100
N485        N  0.01959962  0.20117139  0.66152364    -0.37600
N486        N  0.24263417  0.17435906  0.55589698    -0.37600
C487        C  0.28428087  0.34667201  0.59161077    -0.04300
C488        C  0.28100463  0.38946209  0.60815217    -0.01400
C489        C  0.31954364  0.40601275  0.62477638     0.03600
C490        C  0.36097447  0.37845194  0.62659566    -0.04300
C491        C  0.36485782  0.33643983  0.60947398    -0.01400
C492        C  0.32668792  0.32067277  0.59193707     0.03600
C493        C  0.23665148  0.41440821  0.61036527     0.38300
C494        C  0.40739903  0.30835030  0.61096631     0.38200
C495        C  0.33048181  0.27685609  0.57497554     0.36700
C496        C  0.31607764  0.45139075  0.64027905     0.36700
N497        N  0.33354443  0.24181603  0.56148946    -0.38100
N498        N  0.31329222  0.48740479  0.65278896    -0.38100
N499        N  0.44138176  0.28598907  0.61227217    -0.37600
N500        N  0.20126923  0.43407677  0.61267077    -0.37600
C501        C  0.36803660  0.59905407  0.80722954    -0.04300
C502        C  0.32214022  0.58012597  0.80467400    -0.01400
C503        C  0.28515318  0.59993414  0.82109466     0.03600
C504        C  0.29366943  0.63665652  0.84192795    -0.04300
C505        C  0.33953956  0.65466467  0.84531332    -0.01400
C506        C  0.37662313  0.63590994  0.82807774     0.03600
C507        C  0.31246244  0.53938346  0.78562883     0.38300
C508        C  0.34818512  0.69359834  0.86580993     0.38200
C509        C  0.42323877  0.65575190  0.83110448     0.36700
C510        C  0.23751888  0.58479147  0.81481974     0.36700
N511        N  0.46049386  0.67149014  0.83353671    -0.38100
N512        N  0.19954728  0.57321492  0.80949707    -0.38100
N513        N  0.35501207  0.72486819  0.88206290    -0.37600
N514        N  0.30456351  0.50682264  0.77057381    -0.37600
C515        C  0.13313243  0.83871774  0.80143144    -0.04300
C516        C  0.13068986  0.83621444  0.83288991    -0.01400
C517        C  0.15136789  0.79740204  0.84839176     0.03600
C518        C  0.17004122  0.75806223  0.83279887    -0.04300
C519        C  0.17229531  0.76031101  0.80154283    -0.01400
C520        C  0.15659849  0.80136739  0.78622534     0.03600
C521        C  0.10533701  0.87173739  0.84976791     0.38300
C522        C  0.18993410  0.71979223  0.78483934     0.38200
C523        C  0.16608855  0.80506255  0.75471108     0.36700
C524        C  0.15560942  0.79931991  0.88043492     0.36700
N525        N  0.17476825  0.80711919  0.72969767    -0.38100
N526        N  0.15995133  0.80209244  0.90591236    -0.38100
N527        N  0.20390645  0.68750274  0.77151453    -0.37600
N528        N  0.08491621  0.89928000  0.86381541    -0.37600
C529        C  0.40351508  0.32360046  0.78843279    -0.04300
C530        C  0.40442271  0.28243390  0.77037076    -0.01400
C531        C  0.39075652  0.23782133  0.78215004     0.03600
C532        C  0.37671279  0.23441205  0.81203004    -0.04300
C533        C  0.37493762  0.27581643  0.82987521    -0.01400
C534        C  0.38913825  0.32016611  0.81827346     0.03600
C535        C  0.42163972  0.28564843  0.74019617     0.38300
C536        C  0.35655264  0.27308814  0.85982816     0.38200
C537        C  0.38860945  0.36232984  0.83705644     0.36700
C538        C  0.39090655  0.19550196  0.76360646     0.36700
N539        N  0.38840965  0.39578394  0.85215611    -0.38100
N540        N  0.39079297  0.16173055  0.74878859    -0.38100
N541        N  0.34142677  0.27088730  0.88357003    -0.37600
N542        N  0.43577595  0.28846425  0.71623138    -0.37600
C543        C  0.24590929  0.12280386  0.82510984    -0.04300
C544        C  0.24272159  0.08180709  0.80696005    -0.01400
C545        C  0.20075840  0.07133794  0.79187388     0.03600
C546        C  0.16200418  0.10225829  0.79433373    -0.04300
C547        C  0.16487692  0.14297582  0.81271403    -0.01400
C548        C  0.20667676  0.15299336  0.82828955     0.03600
C549        C  0.28343436  0.05178870  0.80245443     0.38300
C550        C  0.12492131  0.17446798  0.81565080     0.38200
C551        C  0.20980012  0.19464839  0.84736302     0.36700
C552        C  0.19785954  0.02944521  0.77296148     0.36700
N553        N  0.21264171  0.22771034  0.86269378    -0.38100
N554        N  0.19531362  0.99613928  0.75782698    -0.38100
N555        N  0.09322245  0.19984989  0.81803943    -0.37600
N556        N  0.31589172  0.02793163  0.79863607    -0.37600
C557        C  0.87329400  0.22219978  0.83750725    -0.04300
C558        C  0.84954845  0.17768645  0.83908206    -0.01400
C559        C  0.86464974  0.13832164  0.82191683     0.03600
C560        C  0.90287416  0.14336972  0.80251876    -0.04300
C561        C  0.92868748  0.18674016  0.80259767    -0.01400
C562        C  0.91368929  0.22599951  0.81970376     0.03600
C563        C  0.80899321  0.17256137  0.85803752     0.38300
C564        C  0.97130534  0.19120071  0.78539681     0.38200
C565        C  0.93885176  0.27102119  0.81771898     0.36700
C566        C  0.84035552  0.09282830  0.82382243     0.36700
N567        N  0.95917255  0.30675725  0.81613770    -0.38100
N568        N  0.82127504  0.05639064  0.82551755    -0.38100
N569        N  0.00513354  0.19488011  0.77157506    -0.37600
N570        N  0.77642377  0.16862457  0.87299047    -0.37600
C571        C  0.66962547  0.37466310  0.80506340    -0.04300
C572        C  0.71469693  0.39476316  0.80048909    -0.01400
C573        C  0.75369516  0.37690970  0.81604719     0.03600
C574        C  0.74775707  0.34364642  0.83924556    -0.04300
C575        C  0.70249675  0.32643833  0.84573547    -0.01400
C576        C  0.66363729  0.34121306  0.82834996     0.03600
C577        C  0.72149132  0.43529241  0.78075596     0.38300
C578        C  0.69632274  0.29238829  0.86969284     0.38200
C579        C  0.61782218  0.32101675  0.83392270     0.36700
C580        C  0.80040541  0.38987031  0.80639145     0.36700
N581        N  0.58123208  0.30488940  0.83835786    -0.38100
N582        N  0.83753314  0.39922570  0.79807734    -0.38100
N583        N  0.69156559  0.26526362  0.88888103    -0.37600
N584        N  0.72721064  0.46777536  0.76520386    -0.37600
C585        C  0.64985289  0.72515083  0.82392708    -0.04300
C586        C  0.63613754  0.72628801  0.79371202    -0.01400
C587        C  0.62489411  0.68358651  0.77880270     0.03600
C588        C  0.62656108  0.63968696  0.79416986    -0.04300
C589        C  0.63771571  0.63882579  0.82476965    -0.01400
C590        C  0.64929369  0.68154711  0.83963997     0.03600
C591        C  0.63310199  0.77165928  0.77806485     0.38300
C592        C  0.63869746  0.59369856  0.84076042     0.38200
C593        C  0.66153401  0.68052233  0.87089772     0.36700
C594        C  0.61010905  0.68504475  0.74795503     0.36700
N595        N  0.67096113  0.67978190  0.89589296    -0.38100
N596        N  0.59820166  0.68613556  0.72338359    -0.38100
N597        N  0.63952198  0.55765086  0.85343787    -0.37600
N598        N  0.63061474  0.80787888  0.76566507    -0.37600
C599        C  0.77298720  0.84756273  0.81942530    -0.04300
C600        C  0.77138299  0.88819420  0.80079398    -0.01400
C601        C  0.81177695  0.90288202  0.78555829     0.03600
C602        C  0.85328841  0.87586342  0.78789421    -0.04300
C603        C  0.85478211  0.83477703  0.80599609    -0.01400
C604        C  0.81486629  0.82091910  0.82202557     0.03600
C605        C  0.72787712  0.91404212  0.79659281     0.38300
C606        C  0.89800304  0.80803821  0.80913100     0.38200
C607        C  0.81716479  0.77981401  0.84172641     0.36700
C608        C  0.81078429  0.94604590  0.76758612     0.36700
N609        N  0.81888237  0.74705151  0.85744122    -0.38100
N610        N  0.81019813  0.98062120  0.75341121    -0.38100
N611        N  0.93253563  0.78684278  0.81165726    -0.37600
N612        N  0.69307377  0.93446261  0.79322070    -0.37600
C613        C  0.45731494  0.05540327  0.92725889    -0.04300
C614        C  0.46588799  0.10267280  0.91805806    -0.01400
C615        C  0.43174319  0.12803204  0.90179628     0.03600
C616        C  0.39449048  0.10320368  0.88735176    -0.04300
C617        C  0.38830818  0.05392466  0.89470593    -0.01400
C618        C  0.41711648  0.03182593  0.91640786     0.03600
C619        C  0.51174099  0.12373840  0.92208671     0.38300
C620        C  0.35488829  0.02415949  0.87901339     0.38200
C621        C  0.40667980  0.98361372  0.92637617     0.36700
C622        C  0.43516647  0.17982312  0.90110629     0.36700
N623        N  0.39779932  0.94527912  0.93431645    -0.38100
N624        N  0.43859154  0.22108893  0.90083057    -0.38100
N625        N  0.32845961  0.99968418  0.86679084    -0.37600
N626        N  0.54865962  0.14045666  0.92393345    -0.37600
C627        C  0.63664640  0.87131458  0.88876260    -0.04300
C628        C  0.58817377  0.87782014  0.88369147    -0.01400
C629        C  0.56161400  0.90743438  0.90247026     0.03600
C630        C  0.58338942  0.93439950  0.92537266    -0.04300
C631        C  0.63239833  0.93052491  0.92905974    -0.01400
C632        C  0.65826548  0.89717688  0.91216030     0.03600
C633        C  0.56519502  0.85543583  0.85844187     0.38300
C634        C  0.65715444  0.96299836  0.94863489     0.38200
C635        C  0.70709276  0.88906590  0.91940900     0.36700
C636        C  0.51144160  0.90958814  0.89777088     0.36700
N637        N  0.74601464  0.88264839  0.92528264    -0.38100
N638        N  0.47166931  0.91050984  0.89311337    -0.38100
N639        N  0.67786864  0.98899806  0.96372316    -0.37600
N640        N  0.54660972  0.83746620  0.83849630    -0.37600
C641        C  0.13994652  0.36907804  0.52685926    -0.04300
C642        C  0.14654733  0.41932725  0.52214935    -0.01400
C643        C  0.11647165  0.44510501  0.50275919     0.03600
C644        C  0.07503440  0.42397926  0.49198667    -0.04300
C645        C  0.06604284  0.37586649  0.49901819    -0.01400
C646        C  0.10123356  0.34743006  0.51201982     0.03600
C647        C  0.18231777  0.44636114  0.53759608     0.38300
C648        C  0.01920951  0.35668279  0.49625740     0.38200
C649        C  0.09824448  0.29600596  0.50805267     0.36700
C650        C  0.12699563  0.49440158  0.49508116     0.36700
N651        N  0.09583615  0.25502959  0.50466221    -0.38100
N652        N  0.13582440  0.53355918  0.48885694    -0.38100
N653        N  0.98159463  0.34145175  0.49536532    -0.37600
N654        N  0.21059359  0.46939814  0.54921865    -0.37600
C655        C  0.88712176  0.60750810  0.52815383    -0.04300
C656        C  0.86737599  0.57786413  0.50575283    -0.01400
C657        C  0.89525086  0.54435332  0.49020172     0.03600
C658        C  0.94427566  0.54302713  0.49439876    -0.04300
C659        C  0.96425763  0.57325113  0.51624798    -0.01400
C660        C  0.93606437  0.60419678  0.53336036     0.03600
C661        C  0.81840491  0.58262421  0.49775892     0.38300
C662        C  0.01453762  0.57366259  0.52093960     0.38200
C663        C  0.95864092  0.63203644  0.55645254     0.36700
C664        C  0.87266138  0.50964005  0.47106458     0.36700
N665        N  0.97858777  0.65403810  0.57416602    -0.38100
N666        N  0.85365857  0.48196452  0.45622694    -0.38100
N667        N  0.05447313  0.57447941  0.52505740    -0.37600
N668        N  0.77936058  0.58630507  0.49132026    -0.37600
C669        C  0.08138552  0.55408535  0.93334176    -0.04300
C670        C  0.07322521  0.60330113  0.92929477    -0.01400
C671        C  0.10723453  0.63285469  0.91594637     0.03600
C672        C  0.14507449  0.61271035  0.89973611    -0.04300
C673        C  0.14967102  0.56166336  0.90066807    -0.01400
C674        C  0.12000576  0.53339649  0.91891003     0.03600
C675        C  0.02734803  0.62284970  0.93522161     0.38300
C676        C  0.18308198  0.53667808  0.88226250     0.38200
C677        C  0.12835696  0.48241919  0.92204694     0.36700
C678        C  0.10323963  0.68393184  0.92065586     0.36700
N679        N  0.13498311  0.44175797  0.92452195    -0.38100
N680        N  0.09879443  0.72441351  0.92509976    -0.38100
N681        N  0.20954945  0.51541571  0.86810867    -0.37600
N682        N  0.99038262  0.63873196  0.93844420    -0.37600
C683        C  0.95456386  0.42959701  0.93577739    -0.04300
C684        C  0.95123048  0.37994606  0.94172906    -0.01400
C685        C  0.91837682  0.35103413  0.92630351     0.03600
C686        C  0.89195097  0.36980086  0.90221031    -0.04300
C687        C  0.89690483  0.41922985  0.89545129    -0.01400
C688        C  0.92684179  0.44885190  0.91248604     0.03600
C689        C  0.98332214  0.35765837  0.96251426     0.38300
C690        C  0.87181796  0.44063191  0.87076503     0.38200
C691        C  0.92842605  0.49984716  0.90609632     0.36700
C692        C  0.91049115  0.30228179  0.93621190     0.36700
N693        N  0.92979940  0.54039960  0.90089989    -0.38100
N694        N  0.90382839  0.26350654  0.94422176    -0.38100
N695        N  0.85189080  0.45932405  0.85160165    -0.37600
N696        N  0.00907098  0.33923343  0.97877538    -0.37600
C697        C  0.56329234  0.05217674  0.50235696    -0.04300
C698        C  0.60346764  0.02885009  0.51343010    -0.01400
C699        C  0.62972491  0.04927152  0.53698834     0.03600
C700        C  0.62161980  0.09748705  0.54598114    -0.04300
C701        C  0.58448520  0.12248430  0.53151815    -0.01400
C702        C  0.55214110  0.09763688  0.51361296     0.03600
C703        C  0.61637097  0.98242448  0.50176097     0.38300
C704        C  0.57957001  0.17401619  0.53360189     0.38200
C705        C  0.50541273  0.11680150  0.50993800     0.36700
C706        C  0.66213641  0.01862531  0.55291435     0.36700
N707        N  0.46776742  0.13169643  0.50809815    -0.38100
N708        N  0.68765759  0.99344439  0.56538640    -0.38100
N709        N  0.57500430  0.21510767  0.53484264    -0.37600
N710        N  0.62753139  0.94571034  0.49234265    -0.37600
C711        C  0.43875110  0.93090166  0.50038798    -0.04300
C712        C  0.46224127  0.89683817  0.51821351    -0.01400
C713        C  0.43788200  0.87070462  0.54008497     0.03600
C714        C  0.38823949  0.87175816  0.54109702    -0.04300
C715        C  0.36458325  0.90292624  0.52107456    -0.01400
C716        C  0.38997356  0.93574360  0.50353620     0.03600
C717        C  0.51220224  0.88987323  0.51514582     0.38300
C718        C  0.31413247  0.90166042  0.51787680     0.38200
C719        C  0.36628516  0.97795650  0.49250770     0.36700
C720        C  0.46498930  0.84596742  0.56266539     0.36700
N721        N  0.34633072  0.01213714  0.48541163    -0.38100
N722        N  0.48742274  0.82672293  0.58046812    -0.38100
N723        N  0.27393704  0.90123535  0.51490986    -0.37600
N724        N  0.55193370  0.88314607  0.51312398    -0.37600
C725        C  0.38975414  0.11058803  0.02632596    -0.04300
C726        C  0.38599798  0.05956374  0.02518710    -0.01400
C727        C  0.41771270  0.03207412  0.00816866     0.03600
C728        C  0.45612609  0.05397363  0.99418174    -0.04300
C729        C  0.46285621  0.10348665  0.99788574    -0.01400
C730        C  0.42792796  0.13201129  0.01103964     0.03600
C731        C  0.35080456  0.03382021  0.04185693     0.38300
C732        C  0.50813663  0.12439191  0.99170528     0.38200
C733        C  0.43124987  0.18344693  0.00735493     0.36700
C734        C  0.41199701  0.98054021  0.00616344     0.36700
N735        N  0.43476251  0.22433490  0.00394719    -0.38100
N736        N  0.40764435  0.93942652  0.00480849    -0.38100
N737        N  0.54466811  0.14124121  0.98821587    -0.37600
N738        N  0.32290809  0.01165271  0.05434392    -0.37600
C739        C  0.39611906  0.32945032  0.12962678    -0.04300
C740        C  0.39616999  0.33005396  0.09805254    -0.01400
C741        C  0.37666916  0.29150223  0.08179136     0.03600
C742        C  0.36091009  0.24993664  0.09645945    -0.04300
C743        C  0.36048292  0.24909000  0.12774513    -0.01400
C744        C  0.37589887  0.28923667  0.14413537     0.03600
C745        C  0.41784052  0.36869647  0.08164506     0.38300
C746        C  0.34476743  0.20638782  0.14320545     0.38200
C747        C  0.36920716  0.28913420  0.17602242     0.36700
C748        C  0.37094276  0.29544939  0.04987420     0.36700
N749        N  0.36280235  0.28830662  0.20134842    -0.38100
N750        N  0.36543201  0.29914981  0.02452052    -0.38100
N751        N  0.33235903  0.17225604  0.15545439    -0.37600
N752        N  0.43518970  0.39875809  0.06782166    -0.37600
C753        C  0.13100527  0.38594706  0.37936257    -0.04300
C754        C  0.10115574  0.35982199  0.39861735    -0.01400
C755        C  0.07110542  0.38406839  0.41814969     0.03600
C756        C  0.07816736  0.43290866  0.42450714    -0.04300
C757        C  0.11180298  0.45845446  0.40785906    -0.01400
C758        C  0.13538583  0.43608442  0.38405631     0.03600
C759        C  0.10028156  0.30791171  0.39857838     0.38300
C760        C  0.11937809  0.50896061  0.41361935     0.38200
C761        C  0.16068370  0.46589047  0.36317620     0.36700
C762        C  0.02811339  0.36063589  0.42678381     0.36700
N763        N  0.18053919  0.48985088  0.34645591    -0.38100
N764        N  0.99304118  0.34166233  0.43173644    -0.38100
N765        N  0.12539486  0.54928192  0.41804362    -0.37600
N766        N  0.09891737  0.26652952  0.39899950    -0.37600
C767        C  0.26914320  0.36148173  0.31012427    -0.04300
C768        C  0.27674172  0.37779410  0.28076889    -0.01400
C769        C  0.32250100  0.38143536  0.26958201     0.03600
C770        C  0.36098761  0.36967233  0.28785220    -0.04300
C771        C  0.35353672  0.35469298  0.31740046    -0.01400
C772        C  0.30772216  0.34995547  0.32839647     0.03600
C773        C  0.23737866  0.39123283  0.26208848     0.38300
C774        C  0.39310105  0.34316027  0.33634784     0.38200
C775        C  0.30025999  0.33141019  0.35809851     0.36700
C776        C  0.32996456  0.39878777  0.23957880     0.36700
N777        N  0.29408433  0.31658401  0.38175633    -0.38100
N778        N  0.33603678  0.41254210  0.21565889    -0.38100
N779        N  0.42458497  0.33392440  0.35151302    -0.37600
N780        N  0.20604019  0.40187733  0.24715442    -0.37600
C781        C  0.63965431  0.10242300  0.40206320    -0.04300
C782        C  0.60651102  0.12669801  0.42006051    -0.01400
C783        C  0.56918631  0.10159681  0.43343474     0.03600
C784        C  0.56943570  0.05117971  0.43491850    -0.04300
C785        C  0.60499687  0.02637505  0.41965813    -0.01400
C786        C  0.63826352  0.05140254  0.40220088     0.03600
C787        C  0.61089386  0.17763608  0.42573725     0.38300
C788        C  0.60664091  0.97455928  0.42101028     0.38200
C789        C  0.66964086  0.02347886  0.38397574     0.36700
C790        C  0.52775011  0.12797187  0.44168346     0.36700
N791        N  0.69451717  0.00000224  0.37000872    -0.38100
N792        N  0.49451722  0.15011539  0.44656513    -0.38100
N793        N  0.60854292  0.93323834  0.42178841    -0.37600
N794        N  0.61428780  0.21823639  0.43031529    -0.37600
C795        C  0.66213420  0.24222635  0.33164485    -0.04300
C796        C  0.68684464  0.28612898  0.33375854    -0.01400
C797        C  0.67163692  0.32680341  0.31769030     0.03600
C798        C  0.63077605  0.32452381  0.30018914    -0.04300
C799        C  0.60400480  0.28178216  0.30000007    -0.01400
C800        C  0.62037375  0.24049714  0.31477883     0.03600
C801        C  0.72777842  0.28966562  0.35274370     0.38300
C802        C  0.55890269  0.28024883  0.28508956     0.38200
C803        C  0.59495474  0.19580843  0.31150673     0.36700
C804        C  0.69866100  0.37070670  0.31859446     0.36700
N805        N  0.57457688  0.16025642  0.30889070    -0.38100
N806        N  0.72026576  0.40572175  0.31927524    -0.38100
N807        N  0.52290238  0.27906281  0.27328506    -0.37600
N808        N  0.76036795  0.29240651  0.36795175    -0.37600
C809        C  0.13928711  0.61136069  0.03927197    -0.04300
C810        C  0.14407140  0.56092913  0.03530273    -0.01400
C811        C  0.11742485  0.53697554  0.01335734     0.03600
C812        C  0.07827017  0.55954724  0.00038784    -0.04300
C813        C  0.06914358  0.60746058  0.00779761    -0.01400
C814        C  0.10321009  0.63460565  0.02283700     0.03600
C815        C  0.17261838  0.53210028  0.05509572     0.38300
C816        C  0.02283103  0.62736592  0.00391249     0.38200
C817        C  0.10131867  0.68617241  0.01968295     0.36700
C818        C  0.12911156  0.48829870  0.00514102     0.36700
N819        N  0.09921371  0.72721203  0.01652574    -0.38100
N820        N  0.13907040  0.44974689  0.99831021    -0.38100
N821        N  0.98559150  0.64335295  0.00237415    -0.37600
N822        N  0.19493524  0.50863219  0.07090666    -0.37600
C823        C  0.35496874  0.59560884  0.14236465    -0.04300
C824        C  0.30914887  0.57962251  0.14789011    -0.01400
C825        C  0.27226034  0.59497423  0.12949214     0.03600
C826        C  0.28128602  0.62578682  0.10526165    -0.04300
C827        C  0.32723419  0.64110362  0.09944406    -0.01400
C828        C  0.36413914  0.62599410  0.11800567     0.03600
C829        C  0.29999580  0.54734795  0.17246351     0.38300
C830        C  0.33619101  0.67287887  0.07464454     0.38200
C831        C  0.41152216  0.64200342  0.11230060     0.36700
C832        C  0.22462408  0.58056717  0.13608778     0.36700
N833        N  0.44938108  0.65473043  0.10792106    -0.38100
N834        N  0.18652925  0.56948348  0.14126641    -0.38100
N835        N  0.34316137  0.69815282  0.05477720    -0.37600
N836        N  0.29257713  0.52158042  0.19202322    -0.37600
C837        C  0.23625346  0.13118829  0.07864776    -0.04300
C838        C  0.24120472  0.09301128  0.09899757    -0.01400
C839        C  0.20212107  0.07541810  0.11432927     0.03600
C840        C  0.15877107  0.09963246  0.11243077    -0.04300
C841        C  0.15289583  0.13579836  0.09078729    -0.01400
C842        C  0.19152163  0.15104745  0.07356650     0.03600
C843        C  0.28728165  0.07495466  0.10667960     0.38300
C844        C  0.10762611  0.15822829  0.08691938     0.38200
C845        C  0.18578855  0.18816848  0.05136667     0.36700
C846        C  0.20678567  0.03197882  0.13184844     0.36700
N847        N  0.18129432  0.21760337  0.03348441    -0.38100
N848        N  0.21051164  0.99716704  0.14561315    -0.38100
N849        N  0.07139786  0.17598388  0.08379532    -0.37600
N850        N  0.32394281  0.06111209  0.11342795    -0.37600
C851        C  0.13311967  0.25631229  0.30213894    -0.04300
C852        C  0.14383104  0.21396488  0.31788449    -0.01400
C853        C  0.13363521  0.16914266  0.30537449     0.03600
C854        C  0.11320267  0.16638162  0.27691313    -0.04300
C855        C  0.10249377  0.20859613  0.26106297    -0.01400
C856        C  0.11232614  0.25364279  0.27375154     0.03600
C857        C  0.16715254  0.21651870  0.34652576     0.38300
C858        C  0.08057196  0.20558882  0.23203761     0.38200
C859        C  0.10110670  0.29722265  0.25774845     0.36700
C860        C  0.14533835  0.12570755  0.32149621     0.36700
N861        N  0.09194599  0.33204248  0.24506294    -0.38100
N862        N  0.15471846  0.09107198  0.33431210    -0.38100
N863        N  0.06307266  0.20302744  0.20888909    -0.37600
N864        N  0.18599061  0.21860753  0.36926436    -0.37600
C865        C  0.86114572  0.08866544  0.30199017    -0.04300
C866        C  0.81746981  0.06460420  0.30107513    -0.01400
C867        C  0.77968930  0.08100513  0.31823957     0.03600
C868        C  0.78598495  0.11857019  0.33874628    -0.04300
C869        C  0.83078492  0.13935291  0.34202243    -0.01400
C870        C  0.86812294  0.12485824  0.32347743     0.03600
C871        C  0.81118437  0.02194571  0.28316874     0.38300
C872        C  0.83801752  0.17652131  0.36395166     0.38200
C873        C  0.91319444  0.14835571  0.32580783     0.36700
C874        C  0.73326082  0.06174390  0.31289388     0.36700
N875        N  0.94922253  0.16702303  0.32763344    -0.38100
N876        N  0.69614442  0.04703361  0.30817637    -0.38100
N877        N  0.84387874  0.20600823  0.38157865    -0.37600
N878        N  0.80600440  0.98772494  0.26909697    -0.37600
C879        C  0.16174756  0.74982793  0.11033655    -0.04300
C880        C  0.15785443  0.79145496  0.09273778    -0.01400
C881        C  0.14455384  0.83498737  0.10577294     0.03600
C882        C  0.13564755  0.83716403  0.13649791    -0.04300
C883        C  0.14174869  0.79617180  0.15440609    -0.01400
C884        C  0.15485128  0.75251022  0.14133065     0.03600
C885        C  0.17032341  0.79019583  0.06156905     0.38300
C886        C  0.13353517  0.79856987  0.18613505     0.38200
C887        C  0.16179744  0.71052577  0.15982668     0.36700
C888        C  0.14213774  0.87812507  0.08781028     0.36700
N889        N  0.16779016  0.67728114  0.17471026    -0.38100
N890        N  0.14052520  0.91262627  0.07359502    -0.38100
N891        N  0.12712521  0.80063406  0.21144365    -0.37600
N892        N  0.18086258  0.78956255  0.03681094    -0.37600
C893        C  0.89824141  0.38145524  0.04435985    -0.04300
C894        C  0.94655327  0.38819092  0.04953623    -0.01400
C895        C  0.97396141  0.41422092  0.02920121     0.03600
C896        C  0.95294967  0.43854948  0.00483115    -0.04300
C897        C  0.90388721  0.43526727  0.00119551    -0.01400
C898        C  0.87727360  0.40457540  0.01962163     0.03600
C899        C  0.96819418  0.37018012  0.07658337     0.38300
C900        C  0.87998988  0.46566105  0.97992712     0.38200
C901        C  0.82838284  0.39632390  0.01265330     0.36700
C902        C  0.02417987  0.41526592  0.03375687     0.36700
N903        N  0.78940955  0.38966103  0.00702806    -0.38100
N904        N  0.06398829  0.41526319  0.03831305    -0.38100
N905        N  0.86017591  0.49015054  0.96340260    -0.37600
N906        N  0.98550559  0.35604860  0.09814293    -0.37600
C907        C  0.89912371  0.14522638  0.13511957    -0.04300
C908        C  0.90407647  0.18755092  0.15180804    -0.01400
C909        C  0.89425616  0.23219011  0.13857211     0.03600
C910        C  0.87846200  0.23458804  0.10882032    -0.04300
C911        C  0.87409029  0.19230738  0.09205761    -0.01400
C912        C  0.88425698  0.14771746  0.10520645     0.03600
C913        C  0.92083787  0.18533382  0.18222594     0.38300
C914        C  0.85896554  0.19471100  0.06132910     0.38200
C915        C  0.87857961  0.10412374  0.08810843     0.36700
C916        C  0.90201990  0.27591911  0.15519206     0.36700
N917        N  0.87395230  0.06924746  0.07460173    -0.38100
N918        N  0.90869696  0.31080573  0.16834007    -0.38100
N919        N  0.84724865  0.19674042  0.03674806    -0.37600
N920        N  0.93413929  0.18355995  0.20649678    -0.37600
C921        C  0.75912812  0.36135381  0.11141737    -0.04300
C922        C  0.71708105  0.35289623  0.09583019    -0.01400
C923        C  0.67406609  0.36533429  0.10871367     0.03600
C924        C  0.67301277  0.38454384  0.13762909    -0.04300
C925        C  0.71500239  0.39284769  0.15326676    -0.01400
C926        C  0.75810228  0.38157987  0.14006289     0.03600
C927        C  0.71808457  0.32981966  0.06701452     0.38300
C928        C  0.71381251  0.41410109  0.18260947     0.38200
C929        C  0.80142773  0.39071770  0.15589736     0.36700
C930        C  0.63082715  0.35765003  0.09243728     0.36700
N931        N  0.83597770  0.39820530  0.16850767    -0.38100
N932        N  0.59633640  0.35168987  0.07943821    -0.38100
N933        N  0.71264397  0.43113452  0.20598233    -0.37600
N934        N  0.71896378  0.31103205  0.04416046    -0.37600
C935        C  0.44054485  0.92837635  0.43293913    -0.04300
C936        C  0.39533142  0.93988731  0.42293227    -0.01400
C937        C  0.36637872  0.90445057  0.41003113     0.03600
C938        C  0.38574368  0.86078233  0.39900688    -0.04300
C939        C  0.43384746  0.85193575  0.40620929    -0.01400
C940        C  0.45917514  0.88353929  0.42507576     0.03600
C941        C  0.37985764  0.98923257  0.42337705     0.38300
C942        C  0.45942380  0.81223842  0.39358471     0.38200
C943        C  0.50538179  0.87042203  0.43564043     0.36700
C944        C  0.31635857  0.91282110  0.41029522     0.36700
N945        N  0.54196671  0.85926592  0.44420872    -0.38100
N946        N  0.27648423  0.91980276  0.41062904    -0.38100
N947        N  0.48114029  0.78090377  0.38410322    -0.37600
N948        N  0.36800452  0.02881611  0.42277686    -0.37600
C949        C  0.25354276  0.83818609  0.32441525    -0.04300
C950        C  0.20715086  0.82165405  0.32843781    -0.01400
C951        C  0.16957180  0.84290776  0.31261277     0.03600
C952        C  0.17772721  0.88186820  0.29318539    -0.04300
C953        C  0.22425690  0.89871653  0.28964422    -0.01400
C954        C  0.26185701  0.87574761  0.30415842     0.03600
C955        C  0.19790955  0.78277560  0.34898613     0.38300
C956        C  0.23389694  0.94131371  0.27222494     0.38200
C957        C  0.30951395  0.88964724  0.29726049     0.36700
C958        C  0.12274002  0.82373690  0.31591444     0.36700
N959        N  0.34754583  0.90033280  0.29161297    -0.38100
N960        N  0.08544768  0.80826197  0.31860206    -0.38100
N961        N  0.24175947  0.97551593  0.25860062    -0.37600
N962        N  0.19050597  0.75161557  0.36526074    -0.37600
C963        C  0.36426050  0.70448679  0.34324417    -0.04300
C964        C  0.34105786  0.65965486  0.34397164    -0.01400
C965        C  0.35962002  0.61982585  0.32841734     0.03600
C966        C  0.40165227  0.62444191  0.31233583    -0.04300
C967        C  0.42626622  0.66836007  0.31335367    -0.01400
C968        C  0.40668707  0.70850737  0.32744658     0.03600
C969        C  0.29720310  0.65494978  0.35966993     0.38300
C970        C  0.47206592  0.67258039  0.29979289     0.38200
C971        C  0.42792360  0.75516317  0.32291712     0.36700
C972        C  0.33462324  0.57467049  0.32791474     0.36700
N973        N  0.44427193  0.79246864  0.31878631    -0.38100
N974        N  0.31489183  0.53849960  0.32741757    -0.38100
N975        N  0.50868459  0.67588953  0.28915930    -0.37600
N976        N  0.26207857  0.65084441  0.37206590    -0.37600
C977        C  0.58222026  0.92966784  0.99395731    -0.04300
C978        C  0.58058464  0.87954586  0.98990967    -0.01400
C979        C  0.61134658  0.84901823  0.00583558     0.03600
C980        C  0.64153655  0.86750730  0.02819851    -0.04300
C981        C  0.64129756  0.91777804  0.03317631    -0.01400
C982        C  0.61268657  0.94840908  0.01588548     0.03600
C983        C  0.54546648  0.85881425  0.97052282     0.38300
C984        C  0.66963931  0.93905756  0.05642225     0.38200
C985        C  0.61528969  0.99982871  0.02050689     0.36700
C986        C  0.61238119  0.79853551  0.99843502     0.36700
N987        N  0.61749895  0.04074651  0.02419725    -0.38100
N988        N  0.61293585  0.75828558  0.99244689    -0.38100
N989        N  0.69225114  0.95756669  0.07439629    -0.37600
N990        N  0.51726538  0.84180935  0.95536609    -0.37600
C991        C  0.65440431  0.72383431  0.09682028    -0.04300
C992        C  0.61617087  0.73230943  0.11583370    -0.01400
C993        C  0.59647575  0.69449042  0.13245194     0.03600
C994        C  0.61622357  0.64791723  0.13147262    -0.04300
C995        C  0.65405520  0.63929179  0.11217845    -0.01400
C996        C  0.67283479  0.67691869  0.09480250     0.03600
C997        C  0.59821097  0.78055258  0.11937451     0.38300
C998        C  0.67474470  0.59196972  0.11094305     0.38200
C999        C  0.71129748  0.66730494  0.07482815     0.36700
C1000       C  0.55490932  0.70378866  0.14986677     0.36700
N1001       N  0.74202318  0.65965041  0.05891129    -0.38100
N1002       N  0.52173370  0.71149458  0.16366777    -0.38100
N1003       N  0.69121809  0.55418759  0.11007149    -0.37600
N1004       N  0.58408260  0.81906680  0.12219470    -0.37600
C1005       C  0.86392690  0.87236557  0.12322347    -0.04300
C1006       C  0.86996742  0.83821965  0.10034505    -0.01400
C1007       C  0.83107020  0.82213132  0.08341471     0.03600
C1008       C  0.78564939  0.83868656  0.08987246    -0.04300
C1009       C  0.77934248  0.87175785  0.11307128    -0.01400
C1010       C  0.81804364  0.88968892  0.12897731     0.03600
C1011       C  0.91558591  0.81723853  0.09542922     0.38300
C1012       C  0.73234673  0.88526305  0.12187932     0.38200
C1013       C  0.80962776  0.92618838  0.15123108     0.36700
C1014       C  0.83746793  0.78750302  0.05988783     0.36700
N1015       N  0.80242814  0.95508132  0.16900541    -0.38100
N1016       N  0.84251201  0.75989499  0.04106662    -0.38100
N1017       N  0.69492552  0.89541507  0.12920815    -0.37600
N1018       N  0.95186244  0.80000887  0.09171396    -0.37600
C1019       C  0.89385514  0.59896210  0.38320091    -0.04300
C1020       C  0.89677764  0.54848847  0.38094638    -0.01400
C1021       C  0.92071469  0.52179995  0.40278964     0.03600
C1022       C  0.94626864  0.54519505  0.42555148    -0.04300
C1023       C  0.94444857  0.59555419  0.42741383    -0.01400
C1024       C  0.91584237  0.62184862  0.40765172     0.03600
C1025       C  0.87774675  0.52367086  0.35533085     0.38300
C1026       C  0.97462588  0.62098314  0.44794709     0.38200
C1027       C  0.90880676  0.67250049  0.41291938     0.36700
C1028       C  0.92000267  0.46981484  0.40141705     0.36700
N1029       N  0.90325129  0.71280774  0.41751529    -0.38100
N1030       N  0.91950029  0.42842582  0.40058354    -0.38100
N1031       N  0.99897039  0.64204719  0.46381037    -0.37600
N1032       N  0.86281644  0.50355207  0.33495767    -0.37600
C1033       C  0.75743439  0.62855240  0.31358666    -0.04300
C1034       C  0.71827128  0.62587134  0.33249649    -0.01400
C1035       C  0.67454470  0.61127928  0.32119307     0.03600
C1036       C  0.66910767  0.60128440  0.29066149    -0.04300
C1037       C  0.70745327  0.60646134  0.27139474    -0.01400
C1038       C  0.75168211  0.61922370  0.28285630     0.03600
C1039       C  0.72259468  0.63955428  0.36343885     0.38300
C1040       C  0.70193000  0.59653671  0.23994928     0.38200
C1041       C  0.79142060  0.62111694  0.26299454     0.36700
C1042       C  0.63489328  0.60710507  0.34100907     0.36700
N1043       N  0.82274345  0.62261075  0.24686267    -0.38100
N1044       N  0.60331551  0.60361258  0.35683180    -0.38100
N1045       N  0.69747952  0.58873015  0.21487912    -0.37600
N1046       N  0.72622912  0.65070965  0.38805949    -0.37600
C1047       C  0.92304455  0.82429320  0.28545307    -0.04300
C1048       C  0.90576939  0.82483112  0.31472773    -0.01400
C1049       C  0.88977995  0.78215207  0.32787713     0.03600
C1050       C  0.89362601  0.73847068  0.31245018    -0.04300
C1051       C  0.91357615  0.73755124  0.28389080    -0.01400
C1052       C  0.92718236  0.78058862  0.27008288     0.03600
C1053       C  0.90246795  0.86962964  0.33081745     0.38300
C1054       C  0.91992246  0.69228577  0.26875279     0.38200
C1055       C  0.94551254  0.77990964  0.24011815     0.36700
C1056       C  0.86678748  0.78362168  0.35648795     0.36700
N1057       N  0.95989252  0.77948349  0.21615554    -0.38100
N1058       N  0.84782627  0.78508361  0.37909574    -0.38100
N1059       N  0.92547701  0.65613262  0.25680517    -0.37600
N1060       N  0.90001805  0.90536572  0.34365018    -0.37600
loop_ 
_geom_bond_atom_site_label_1 
_geom_bond_atom_site_label_2 
_geom_bond_distance 
_geom_bond_site_symmetry_2 
_ccdc_geom_bond_type 
C1            C2   1.408       .  A
C1            C6   1.396       .  A
C1         C1033   1.491       .  S
C2            C3   1.411       .  A
C2            H7   1.083       .  S
C3            C4   1.409       .  A
C3         C1019   1.503       .  S
C4            C5   1.400       .  A
C4            H8   1.084       .  S
C5            C6   1.395       .  A
C5         C1050   1.478       .  S
C6            H9   1.085       .  S
C10          C11   1.408       .  A
C10          C15   1.399       .  A
C10        C1008   1.491       .  S
C11          C12   1.414       .  A
C11          H16   1.082       .  S
C12          C13   1.414       .  A
C12         C980   1.518       .  S
C13          C14   1.410       .  A
C13          H17   1.083       .  S
C14          C15   1.401       .  A
C14         C991   1.499       .  S
C15          H18   1.084       .  S
C19          C20   1.399       .  A
C19          C24   1.416       .  A
C19         C963   1.499       .  S
C20          C21   1.397       .  A
C20          H25   1.084       .  S
C21          C22   1.409       .  A
C21         C949   1.499       .  S
C22          C23   1.418       .  A
C22          H26   1.079       .  S
C23          C24   1.423       .  A
C23         C938   1.542       .  S
C24          H27   1.078       .  S
C28          C29   1.405       .  A
C28          C33   1.393       .  A
C28         C910   1.482       .  S
C29          C30   1.414       .  A
C29          H34   1.083       .  S
C30          C31   1.409       .  A
C30         C893   1.503       .  S
C31          C32   1.401       .  A
C31          H35   1.083       .  S
C32          C33   1.392       .  A
C32         C921   1.475       .  S
C33          H36   1.085       .  S
C37          C74   1.471       .  S
C37         C952   1.501       .  S
C37          N55   1.348       .  A
N38          N55   1.321       .  A
N38          N60   1.316       .  A
N38         Co75   2.071       .  S
C39          C77   1.462       .  S
C39          H84   1.081       .  S
C39          N64   1.337       .  A
H40          C81   1.081       .  S
C41          C45   1.473       .  S
C41          H70   1.082       .  S
C41          N65   1.350       .  A
Co42         N60   2.093       .  S
Co42         N50   2.068   1_455  S
Co42         N82   2.065   1_565  S
Co42         N58   2.090   1_465  S
Co42        Cl86   2.475       .  S
N43          C81   1.341       .  A
N43          N50   1.324       .  A
N43         Co44   2.105       .  S
Co44         N47   2.069       .  S
Co44         N64   2.072   1_565  S
Co44         N51   2.119   1_565  S
Co44        Cl86   2.417   1_655  S
C45        C1005   1.504       .  S
C45          N83   1.346       .  A
N46          N53   1.324       .  A
N46          N76   1.320       .  A
N46         Co79   2.067       .  S
N47          N65   1.315       .  A
N47          N83   1.320       .  A
N48          C77   1.355       .  A
N48          N58   1.329       .  A
H49          C74   1.082       .  S
N50          N71   1.322       .  A
N51          N69   1.323       .  A
N51          N56   1.329       .  A
C52          C80   1.445       .  S
C52         C907   1.476       .  S
C52          N56   1.356       .  A
N53          C68   1.340       .  A
N53         Co75   2.098       .  S
C54          C57   1.447       .  S
C54          H88   1.081       .  S
C54          N82   1.333       .  A
C57         C854   1.472       .  S
C57          N78   1.352       .  A
N58          N64   1.316       .  A
N59          C85   1.336       .  A
N59          N61   1.316       .  A
N59         Co75   2.070   1_545  S
N60          C74   1.348       .  A
N61          N89   1.328       .  A
N61         Co79   2.086   1_545  S
H62          C85   1.082       .  S
H63          C80   1.082       .  S
N65         Co79   2.093   1_655  S
N66          N78   1.327       .  A
N66          N82   1.323       .  A
N66         Co75   2.104   1_545  S
C67          C81   1.459       .  S
C67        C1047   1.474       .  S
C67          N71   1.345       .  A
C68          C87   1.459       .  S
C68          H72   1.081       .  S
N69          C80   1.331       .  A
N69         Co79   2.056   1_645  S
C73          C85   1.462       .  S
C73         C840   1.492       .  S
C73          N89   1.353       .  A
Co75        Cl86   2.423       .  S
N76          C87   1.345       .  A
C77         C865   1.499       .  S
Co79        Cl86   2.475       .  S
C87         C882   1.471       .  S
C90          C91   1.403       .  A
C90          C95   1.387       .  A
C90         C826   1.474       .  S
C91          C92   1.417       .  A
C91          H96   1.080       .  S
C92          C93   1.418       .  A
C92         C809   1.520       .  S
C93          C94   1.403       .  A
C93          H97   1.081       .  S
C94          C95   1.387       .  A
C94         C879   1.478       .  S
C95          H98   1.085       .  S
C99         C100   1.412       .  A
C99         C104   1.397       .  A
C99         C868   1.493       .  S
C100        C101   1.420       .  A
C100        H105   1.080       .  S
C101        C102   1.416       .  A
C101        C781   1.526       .  S
C102        C103   1.406       .  A
C102        H106   1.081       .  S
C103        C104   1.398       .  A
C103        C795   1.498       .  S
C104        H107   1.085       .  S
C108        C109   1.415       .  A
C108        C113   1.415       .  A
C108        C753   1.513       .  S
C109        C110   1.401       .  A
C109        H114   1.082       .  S
C110        C111   1.388       .  A
C110        C851   1.477       .  S
C111        C112   1.392       .  A
C111        H115   1.085       .  S
C112        C113   1.408       .  A
C112        C767   1.485       .  S
C113        H116   1.082       .  S
C117        C118   1.416       .  A
C117        C122   1.420       .  A
C117        C725   1.525       .  S
C118        C119   1.407       .  A
C118        H123   1.080       .  S
C119        C120   1.397       .  A
C119        C837   1.489       .  S
C120        C121   1.397       .  A
C120        H124   1.084       .  S
C121        C122   1.409       .  A
C121        C742   1.497       .  S
C122        H125   1.082       .  S
C126        C163   1.450       .  S
C126       C1036   1.478       .  S
C126        N144   1.354       .  A
N127        N144   1.327       .  A
N127        N149   1.323       .  A
N127       Co164   2.111       .  S
C128        C166   1.466       .  S
C128        H173   1.078       .  S
C128        N153   1.343       .  A
H129        C170   1.082       .  S
C130        C134   1.448       .  S
C130        H159   1.081       .  S
C130        N154   1.334       .  A
Co131       N149   2.062       .  S
Co131       N139   2.098       .  S
Co131       N171   2.101       .  S
Co131       N147   2.056       .  S
Co131      Cl175   2.475       .  S
N132        C170   1.334       .  A
N132        N139   1.317       .  A
N132       Co133   2.061       .  S
Co133       N136   2.103       .  S
Co133       N153   2.115       .  S
Co133       N140   2.070       .  S
Co133      Cl175   2.429       .  S
C134        C924   1.470       .  S
C134        N172   1.352       .  A
N135        N142   1.317       .  A
N135        N165   1.330       .  A
N135       Co168   2.106       .  S
N136        N154   1.322       .  A
N136        N172   1.326       .  A
N137        C166   1.342       .  A
N137        N147   1.319       .  A
H138        C163   1.082       .  S
N139        N160   1.329       .  A
N140        N158   1.315       .  A
N140        N145   1.323       .  A
C141        C169   1.477       .  S
C141        C739   1.510       .  S
C141        N145   1.351       .  A
N142        C157   1.336       .  A
N142       Co164   2.064       .  S
C143        C146   1.470       .  S
C143        H177   1.082       .  S
C143        N171   1.349       .  A
C146        C966   1.494       .  S
C146        N167   1.348       .  A
N147        N153   1.323       .  A
N148        C174   1.345       .  A
N148        N150   1.323       .  A
N148       Co164   2.110       .  S
N149        C163   1.334       .  A
N150        N178   1.318       .  A
N150       Co168   2.052       .  S
H151        C174   1.081       .  S
H152        C169   1.079       .  S
N154       Co168   2.062       .  S
N155        N167   1.321       .  A
N155        N171   1.317       .  A
N155       Co164   2.069       .  S
C156        C170   1.455       .  S
C156        C798   1.490       .  S
C156        N160   1.356       .  A
C157        C176   1.457       .  S
C157        H161   1.081       .  S
N158        C169   1.346       .  A
N158       Co168   2.102       .  S
C162        C174   1.464       .  S
C162        C823   1.469       .  S
C162        N178   1.340       .  A
Co164      Cl175   2.428       .  S
N165        C176   1.358       .  A
C166        C770   1.476       .  S
Co168      Cl175   2.466       .  S
C176        C994   1.498       .  S
C179        C180   1.420       .  A
C179        C184   1.415       .  A
C179        C935   1.507       .  S
C180        C181   1.405       .  A
C180        C711   1.499       .  S
C181        C182   1.402   1_565  A
C181        H186   1.084       .  S
C182        C183   1.420       .  A
C182        C697   1.498       .  S
C183        C184   1.417   1_545  A
C183        C784   1.510       .  S
C184        H185   1.083       .  S
C187        C188   1.430       .  A
C187        C192   1.418   1_655  A
C187        C683   1.515       .  S
C188        C189   1.409   1_655  A
C188        C896   1.509   1_556  S
C189        C190   1.400       .  A
C189        H194   1.085   1_556  S
C190        C191   1.415       .  A
C190        C812   1.495   1_556  S
C191        C192   1.409       .  A
C191        C669   1.507       .  S
C192        H193   1.084       .  S
C195        C196   1.423       .  A
C195        C200   1.403   1_655  A
C195       C1022   1.498       .  S
C196        C197   1.416   1_655  A
C196        C658   1.512       .  S
C197        C198   1.411       .  A
C197        H202   1.084       .  S
C198        C199   1.416       .  A
C198        C644   1.497       .  S
C199        C200   1.397       .  A
C199        C756   1.499       .  S
C200        H201   1.086       .  S
C203        C204   1.428       .  A
C203        C208   1.413       .  A
C203        C977   1.510       .  S
C204        C205   1.410   1_565  A
C204        C630   1.509       .  S
C205        C206   1.402       .  A
C205        H210   1.085       .  S
C206        C207   1.414       .  A
C206        C613   1.497       .  S
C207        C208   1.407   1_545  A
C207        C728   1.501       .  S
C208        H209   1.084   1_556  S
C211        C212   1.391       .  A
C211        C216   1.404       .  A
C211        C599   1.482       .  S
C212        C213   1.392       .  A
C212        H217   1.085       .  S
C213        C214   1.403       .  A
C213        C585   1.481       .  S
C214        C215   1.414       .  A
C214        H218   1.083       .  S
C215        C216   1.411       .  A
C215        C627   1.505       .  S
C216        H219   1.083       .  S
C220        C221   1.408       .  A
C220        C225   1.396       .  A
C220        C574   1.489       .  S
C221        C222   1.414       .  A
C221        H226   1.082       .  S
C222        C223   1.415       .  A
C222        C686   1.517       .  S
C223        C224   1.411       .  A
C223        H227   1.083       .  S
C224        C225   1.399       .  A
C224        C557   1.498       .  S
C225        H228   1.084       .  S
C229        C230   1.421       .  A
C229        C234   1.416       .  A
C229        C616   1.523       .  S
C230        C231   1.409       .  A
C230        H235   1.080       .  S
C231        C232   1.391       .  A
C231        C543   1.482       .  S
C232        C233   1.386       .  A
C232        H236   1.085       .  S
C233        C234   1.400       .  A
C233        C532   1.476       .  S
C234        H237   1.081       .  S
C238        C239   1.399       .  A
C238        C243   1.410       .  A
C238        C518   1.499       .  S
C239        C240   1.395       .  A
C239        H244   1.084       .  S
C240        C241   1.409       .  A
C240        C504   1.494       .  S
C241        C242   1.418       .  A
C241        H245   1.079       .  S
C242        C243   1.422       .  A
C242        C672   1.532       .  S
C243        H246   1.081       .  S
C247        C248   1.418       .  A
C247        C252   1.419       .  A
C247        C641   1.530       .  S
C248        C249   1.404       .  A
C248        H253   1.080       .  S
C249        C250   1.395       .  A
C249        C473   1.493       .  S
C250        C251   1.397       .  A
C250        H254   1.084       .  S
C251        C252   1.410       .  A
C251        C487   1.492       .  S
C252        H255   1.078       .  S
C256        C257   1.400       .  A
C256        C261   1.387       .  A
C256        C445   1.477       .  S
C257        C258   1.417       .  A
C257        H262   1.081       .  S
C258        C259   1.421       .  A
C258        C700   1.524       .  S
C259        C260   1.410       .  A
C259        H263   1.080       .  S
C260        C261   1.390       .  A
C260        C459   1.483       .  S
C261        H264   1.085       .  S
C265        C302   1.468       .  S
C265        C501   1.498       .  S
C265        N283   1.349       .  A
N266        N283   1.321       .  A
N266        N288   1.318       .  A
N266       Co303   2.074       .  S
C267        C305   1.458       .  S
C267        H312   1.081       .  S
C267        N292   1.333       .  A
H268        C309   1.081       .  S
C269        C273   1.470       .  S
C269        H298   1.082       .  S
C269        N293   1.347       .  A
Co270       N288   2.092       .  S
Co270       N278   2.049       .  S
Co270       N310   2.052       .  S
Co270       N286   2.097       .  S
Co270      Cl314   2.476       .  S
N271        C309   1.345       .  A
N271        N278   1.323       .  A
N271       Co272   2.113       .  S
Co272       N275   2.064       .  S
Co272       N292   2.060       .  S
Co272       N279   2.102       .  S
Co272      Cl314   2.416       .  S
C273        C431   1.496       .  S
C273        N311   1.346       .  A
N274        N281   1.325       .  A
N274        N304   1.322       .  A
N274       Co307   2.070       .  S
N275        N293   1.317       .  A
N275        N311   1.320       .  A
N276        C305   1.358       .  A
N276        N286   1.330       .  A
H277        C302   1.082       .  S
N278        N299   1.318       .  A
N279        N297   1.322       .  A
N279        N284   1.327       .  A
C280        C308   1.449       .  S
C280        C448   1.474       .  S
C280        N284   1.352       .  A
N281        C296   1.345       .  A
N281       Co303   2.116       .  S
C282        C285   1.446       .  S
C282        H316   1.082       .  S
C282        N310   1.332       .  A
C285        C529   1.471       .  S
C285        N306   1.353       .  A
N286        N292   1.314       .  A
N287        C313   1.335       .  A
N287        N289   1.316       .  A
N287       Co303   2.065       .  S
N288        C302   1.346       .  A
N289        N317   1.328       .  A
N289       Co307   2.091       .  S
H290        C313   1.082       .  S
H291        C308   1.081       .  S
N293       Co307   2.095       .  S
N294        N306   1.327       .  A
N294        N310   1.323       .  A
N294       Co303   2.112       .  S
C295        C309   1.467       .  S
C295        C588   1.473       .  S
C295        N299   1.340       .  A
C296        C315   1.464       .  S
C296        H300   1.081       .  S
N297        C308   1.334       .  A
N297       Co307   2.061       .  S
C301        C313   1.458       .  S
C301        C490   1.489       .  S
C301        N317   1.354       .  A
Co303      Cl314   2.423       .  S
N304        C315   1.344       .  A
C305        C571   1.499       .  S
Co307      Cl314   2.473       .  S
C315        C417   1.477       .  S
C318        C319   1.408       .  A
C318        C323   1.400       .  A
C318        C434   1.496       .  S
C319        C320   1.413       .  A
C319        H324   1.083       .  S
C320        C321   1.415       .  A
C320        C655   1.518       .  S
C321        C322   1.410       .  A
C321        H325   1.082       .  S
C322        C323   1.398       .  A
C322        C403   1.492       .  S
C323        H326   1.084       .  S
C327        C328   1.391       .  A
C327        C332   1.403       .  A
C327        C392   1.479       .  S
C328        C329   1.391       .  A
C328        H333   1.085       .  S
C329        C330   1.404       .  A
C329        C420   1.480       .  S
C330        C331   1.416       .  A
C330        H334   1.082       .  S
C331        C332   1.414       .  A
C331        C714   1.513       .  S
C332        H335   1.082       .  S
C336        C373   1.444       .  S
C336        C602   1.470       .  S
C336        N354   1.353       .  A
N337        N354   1.328       .  A
N337        N359   1.322       .  A
N337       Co374   2.104   1_655  S
C338        C376   1.467       .  S
C338        H383   1.081       .  S
C338        N363   1.347       .  A
H339        C380   1.082       .  S
C340        C344   1.446       .  S
C340        H369   1.081       .  S
C340        N364   1.331       .  A
Co341       N359   2.056   1_455  S
Co341       N349   2.093   1_465  S
Co341       N381   2.100       .  S
Co341       N357   2.054   1_565  S
Co341      Cl385   2.463       .  S
N342        C380   1.334       .  A
N342        N349   1.316       .  A
N342       Co343   2.062   1_655  S
Co343       N346   2.117   1_455  S
Co343       N363   2.119       .  S
Co343       N350   2.058       .  S
Co343      Cl385   2.426   1_545  S
C344        C462   1.474       .  S
C344        N382   1.355       .  A
N345        N352   1.317       .  A
N345        N375   1.331       .  A
N345       Co378   2.104   1_655  S
N346        N364   1.322       .  A
N346        N382   1.328       .  A
N347        C376   1.342       .  A
N347        N357   1.319       .  A
H348        C373   1.081       .  S
N349        N370   1.328       .  A
N350        N368   1.318       .  A
N350        N355   1.318       .  A
C351        C379   1.471       .  S
C351        C476   1.493       .  S
C351        N355   1.344       .  A
N352        C367   1.334       .  A
N352       Co374   2.068   1_655  S
C353        C356   1.476       .  S
C353        H387   1.079       .  S
C353        N381   1.347       .  A
C356        C515   1.506       .  S
C356        N377   1.349       .  A
N357        N363   1.322       .  A
N358        C384   1.343       .  A
N358        N360   1.323       .  A
N358       Co374   2.113       .  S
N359        C373   1.331       .  A
N360        N388   1.320       .  A
N360       Co378   2.056       .  S
H361        C384   1.078       .  S
H362        C379   1.082       .  S
N364       Co378   2.050   1_645  S
N365        N377   1.321       .  A
N365        N381   1.316       .  A
N365       Co374   2.067       .  S
C366        C380   1.459       .  S
C366        C560   1.491       .  S
C366        N370   1.355       .  A
C367        C386   1.460       .  S
C367        H371   1.082       .  S
N368        C379   1.348       .  A
N368       Co378   2.102   1_545  S
C372        C384   1.464       .  S
C372        C389   1.475       .  S
C372        N388   1.342       .  A
Co374      Cl385   2.432       .  S
N375        C386   1.358       .  A
C376        C546   1.477       .  S
Co378      Cl385   2.473       .  S
C386        C406   1.500       .  S
C389        C390   1.410       .  A
C389        C394   1.412       .  A
C390        C391   1.409       .  A
C390        C395   1.450       .  S
C391        C392   1.411       .  A
C391        C398   1.451       .  S
C392        C393   1.411       .  A
C393        C394   1.408       .  A
C393        C396   1.451       .  S
C394        C397   1.452       .  S
C395        N402   1.157       .  T
C396        N401   1.157       .  T
C397        N399   1.157       .  T
C398        N400   1.157       .  T
C403        C404   1.409       .  A
C403        C408   1.413       .  A
C404        C405   1.406       .  A
C404        C409   1.453       .  S
C405        C406   1.420       .  A
C405        C412   1.452       .  S
C406        C407   1.416       .  A
C407        C408   1.421       .  A
C407        C410   1.450       .  S
C408        C411   1.449       .  S
C409        N416   1.157       .  T
C410        N415   1.158       .  T
C411        N413   1.157       .  T
C412        N414   1.158       .  T
C417        C418   1.412       .  A
C417        C422   1.410       .  A
C418        C419   1.411       .  A
C418        C423   1.449       .  S
C419        C420   1.410       .  A
C419        C426   1.451       .  S
C420        C421   1.412       .  A
C421        C422   1.409       .  A
C421        C424   1.451       .  S
C422        C425   1.451       .  S
C423        N430   1.157       .  T
C424        N429   1.157       .  T
C425        N427   1.157       .  T
C426        N428   1.157       .  T
C431        C432   1.413       .  A
C431        C436   1.422       .  A
C432        C433   1.415       .  A
C432        C437   1.450       .  S
C433        C434   1.416       .  A
C433        C440   1.451       .  S
C434        C435   1.412       .  A
C435        C436   1.411       .  A
C435        C438   1.453       .  S
C436        C439   1.453       .  S
C437        N444   1.157       .  T
C438        N443   1.157       .  T
C439        N441   1.158       .  T
C440        N442   1.157       .  T
C445        C446   1.412       .  A
C445        C450   1.410       .  A
C446        C447   1.404       .  A
C446        C451   1.453       .  S
C447        C448   1.410       .  A
C447        C454   1.452       .  S
C448        C449   1.412       .  A
C449        C450   1.412       .  A
C449        C452   1.451       .  S
C450        C453   1.450       .  S
C451        N458   1.157       .  T
C452        N457   1.157       .  T
C453        N455   1.157       .  T
C454        N456   1.157       .  T
C459        C460   1.412       .  A
C459        C464   1.414       .  A
C460        C461   1.407       .  A
C460        C465   1.451       .  S
C461        C462   1.412       .  A
C461        C468   1.453       .  S
C462        C463   1.409       .  A
C463        C464   1.411       .  A
C463        C466   1.451       .  S
C464        C467   1.451       .  S
C465        N472   1.157       .  T
C466        N471   1.157       .  T
C467        N469   1.157       .  T
C468        N470   1.157   1_545  T
C473        C474   1.417       .  A
C473        C478   1.410       .  A
C474        C475   1.414       .  A
C474        C479   1.450       .  S
C475        C476   1.411       .  A
C475        C482   1.450       .  S
C476        C477   1.422       .  A
C477        C478   1.410       .  A
C477        C480   1.453       .  S
C478        C481   1.452       .  S
C479        N486   1.157       .  T
C480        N485   1.158       .  T
C481        N483   1.157       .  T
C482        N484   1.157       .  T
C487        C488   1.414       .  A
C487        C492   1.415       .  A
C488        C489   1.409       .  A
C488        C493   1.452       .  S
C489        C490   1.416       .  A
C489        C496   1.453       .  S
C490        C491   1.411       .  A
C491        C492   1.416       .  A
C491        C494   1.450       .  S
C492        C495   1.449       .  S
C493        N500   1.157       .  T
C494        N499   1.157       .  T
C495        N497   1.157       .  T
C496        N498   1.158       .  T
C501        C502   1.419       .  A
C501        C506   1.416       .  A
C502        C503   1.408       .  A
C502        C507   1.453       .  S
C503        C504   1.413       .  A
C503        C510   1.453       .  S
C504        C505   1.413       .  A
C505        C506   1.419       .  A
C505        C508   1.449       .  S
C506        C509   1.450       .  S
C507        N514   1.158       .  T
C508        N513   1.157       .  T
C509        N511   1.157       .  T
C510        N512   1.157       .  T
C515        C516   1.421       .  A
C515        C520   1.420       .  A
C516        C517   1.417       .  A
C516        C521   1.449       .  S
C517        C518   1.412       .  A
C517        C524   1.450       .  S
C518        C519   1.412       .  A
C519        C520   1.411       .  A
C519        C522   1.453       .  S
C520        C523   1.451       .  S
C521        N528   1.158       .  T
C522        N527   1.157       .  T
C523        N525   1.157       .  T
C524        N526   1.157       .  T
C529        C530   1.411       .  A
C529        C534   1.411       .  A
C530        C531   1.410       .  A
C530        C535   1.451       .  S
C531        C532   1.410       .  A
C531        C538   1.449       .  S
C532        C533   1.411       .  A
C533        C534   1.405       .  A
C533        C536   1.453       .  S
C534        C537   1.452       .  S
C535        N542   1.157       .  T
C536        N541   1.157       .  T
C537        N539   1.157       .  T
C538        N540   1.157       .  T
C543        C544   1.412       .  A
C543        C548   1.413       .  A
C544        C545   1.408       .  A
C544        C549   1.451       .  S
C545        C546   1.411       .  A
C545        C552   1.452       .  S
C546        C547   1.411       .  A
C547        C548   1.412       .  A
C547        C550   1.450       .  S
C548        C551   1.451       .  S
C549        N556   1.157       .  T
C550        N555   1.157       .  T
C551        N553   1.157       .  T
C552        N554   1.157   1_545  T
C557        C558   1.419       .  A
C557        C562   1.414       .  A
C558        C559   1.415       .  A
C558        C563   1.451       .  S
C559        C560   1.410       .  A
C559        C566   1.451       .  S
C560        C561   1.419       .  A
C561        C562   1.410       .  A
C561        C564   1.453       .  S
C562        C565   1.452       .  S
C563        N570   1.157       .  T
C564        N569   1.158   1_655  T
C565        N567   1.157       .  T
C566        N568   1.158       .  T
C571        C572   1.422       .  A
C571        C576   1.415       .  A
C572        C573   1.406       .  A
C572        C577   1.452       .  S
C573        C574   1.408       .  A
C573        C580   1.453       .  S
C574        C575   1.412       .  A
C575        C576   1.418       .  A
C575        C578   1.449       .  S
C576        C579   1.449       .  S
C577        N584   1.158       .  T
C578        N583   1.157       .  T
C579        N581   1.157       .  T
C580        N582   1.157       .  T
C585        C586   1.416       .  A
C585        C590   1.408       .  A
C586        C587   1.407       .  A
C586        C591   1.452       .  S
C587        C588   1.408       .  A
C587        C594   1.452       .  S
C588        C589   1.414       .  A
C589        C590   1.409       .  A
C589        C592   1.452       .  S
C590        C593   1.450       .  S
C591        N598   1.157       .  T
C592        N597   1.157       .  T
C593        N595   1.157       .  T
C594        N596   1.157       .  T
C599        C600   1.412       .  A
C599        C604   1.415       .  A
C600        C601   1.407       .  A
C600        C605   1.451       .  S
C601        C602   1.411       .  A
C601        C608   1.452       .  S
C602        C603   1.408       .  A
C603        C604   1.408       .  A
C603        C606   1.451       .  S
C604        C607   1.452       .  S
C605        N612   1.157       .  T
C606        N611   1.157       .  T
C607        N609   1.157       .  T
C608        N610   1.157       .  T
C613        C614   1.405       .  A
C613        C618   1.411       .  A
C614        C615   1.409       .  A
C614        C619   1.448       .  S
C615        C616   1.427       .  A
C615        C622   1.451       .  S
C616        C617   1.427       .  A
C617        C618   1.417       .  A
C617        C620   1.450       .  S
C618        C621   1.451   1_545  S
C619        N626   1.157       .  T
C620        N625   1.158   1_545  T
C621        N623   1.157       .  T
C622        N624   1.157       .  T
C627        C628   1.416       .  A
C627        C632   1.419       .  A
C628        C629   1.410       .  A
C628        C633   1.454       .  S
C629        C630   1.420       .  A
C629        C636   1.451       .  S
C630        C631   1.415       .  A
C631        C632   1.416       .  A
C631        C634   1.449       .  S
C632        C635   1.451       .  S
C633        N640   1.158       .  T
C634        N639   1.157       .  T
C635        N637   1.157       .  T
C636        N638   1.156       .  T
C641        C642   1.432       .  A
C641        C646   1.426       .  A
C642        C643   1.419       .  A
C642        C647   1.448       .  S
C643        C644   1.409       .  A
C643        C650   1.451       .  S
C644        C645   1.405       .  A
C645        C646   1.408       .  A
C645        C648   1.448       .  S
C646        C649   1.451       .  S
C647        N654   1.158       .  T
C648        N653   1.157   1_455  T
C649        N651   1.158       .  T
C650        N652   1.157       .  T
C655        C656   1.422       .  A
C655        C660   1.422       .  A
C656        C657   1.419       .  A
C656        C661   1.451       .  S
C657        C658   1.415       .  A
C657        C664   1.449       .  S
C658        C659   1.417       .  A
C659        C660   1.415       .  A
C659        C662   1.453   1_655  S
C660        C663   1.450       .  S
C661        N668   1.157       .  T
C662        N667   1.157       .  T
C663        N665   1.157       .  T
C664        N666   1.157       .  T
C669        C670   1.407       .  A
C669        C674   1.410       .  A
C670        C671   1.412       .  A
C670        C675   1.448       .  S
C671        C672   1.425       .  A
C671        C678   1.448       .  S
C672        C673   1.433       .  A
C673        C674   1.422       .  A
C673        C676   1.449       .  S
C674        C677   1.451       .  S
C675        N682   1.157   1_455  T
C676        N681   1.157       .  T
C677        N679   1.157       .  T
C678        N680   1.156       .  T
C683        C684   1.416       .  A
C683        C688   1.418       .  A
C684        C685   1.419       .  A
C684        C689   1.449       .  S
C685        C686   1.420       .  A
C685        C692   1.451       .  S
C686        C687   1.421       .  A
C687        C688   1.415       .  A
C687        C690   1.450       .  S
C688        C691   1.454       .  S
C689        N696   1.157   1_655  T
C690        N695   1.157       .  T
C691        N693   1.157       .  T
C692        N694   1.157       .  T
C697        C698   1.411       .  A
C697        C702   1.406       .  A
C698        C699   1.418       .  A
C698        C703   1.450   1_545  S
C699        C700   1.427       .  A
C699        C706   1.450       .  S
C700        C701   1.426       .  A
C701        C702   1.409       .  A
C701        C704   1.450       .  S
C702        C705   1.449       .  S
C703        N710   1.157       .  T
C704        N709   1.157       .  T
C705        N707   1.157       .  T
C706        N708   1.158   1_545  T
C711        C712   1.413       .  A
C711        C716   1.410       .  A
C712        C713   1.412       .  A
C712        C717   1.450       .  S
C713        C714   1.421       .  A
C713        C720   1.451       .  S
C714        C715   1.422       .  A
C715        C716   1.412       .  A
C715        C718   1.450       .  S
C716        C719   1.447       .  S
C717        N724   1.156       .  T
C718        N723   1.157       .  T
C719        N721   1.157   1_565  T
C720        N722   1.157       .  T
C725        C726   1.431       .  A
C725        C730   1.425       .  A
C726        C727   1.418       .  A
C726        C731   1.449       .  S
C727        C728   1.408   1_554  A
C727        C734   1.452   1_545  S
C728        C729   1.407       .  A
C729        C730   1.412   1_556  A
C729        C732   1.448       .  S
C730        C733   1.450       .  S
C731        N738   1.157       .  T
C732        N737   1.157       .  T
C733        N735   1.157       .  T
C734        N736   1.157       .  T
C739        C740   1.423       .  A
C739        C744   1.423       .  A
C740        C741   1.417       .  A
C740        C745   1.448       .  S
C741        C742   1.410       .  A
C741        C748   1.451       .  S
C742        C743   1.410       .  A
C743        C744   1.414       .  A
C743        C746   1.453       .  S
C744        C747   1.451       .  S
C745        N752   1.158       .  T
C746        N751   1.157       .  T
C747        N749   1.157       .  T
C748        N750   1.157       .  T
C753        C754   1.421       .  A
C753        C758   1.423       .  A
C754        C755   1.408       .  A
C754        C759   1.451       .  S
C755        C756   1.409       .  A
C755        C762   1.447       .  S
C756        C757   1.415       .  A
C757        C758   1.416       .  A
C757        C760   1.452       .  S
C758        C761   1.451       .  S
C759        N766   1.157       .  T
C760        N765   1.157       .  T
C761        N763   1.158       .  T
C762        N764   1.157   1_455  T
C767        C768   1.416       .  A
C767        C772   1.411       .  A
C768        C769   1.408       .  A
C768        C773   1.452       .  S
C769        C770   1.411       .  A
C769        C776   1.452       .  S
C770        C771   1.412       .  A
C771        C772   1.409       .  A
C771        C774   1.451       .  S
C772        C775   1.451       .  S
C773        N780   1.157       .  T
C774        N779   1.157       .  T
C775        N777   1.157       .  T
C776        N778   1.158       .  T
C781        C782   1.424       .  A
C781        C786   1.426       .  A
C782        C783   1.414       .  A
C782        C787   1.452       .  S
C783        C784   1.410       .  A
C783        C790   1.447       .  S
C784        C785   1.413       .  A
C785        C786   1.420       .  A
C785        C788   1.450   1_545  S
C786        C789   1.449       .  S
C787        N794   1.158       .  T
C788        N793   1.157       .  T
C789        N791   1.157       .  T
C790        N792   1.157       .  T
C795        C796   1.419       .  A
C795        C800   1.414       .  A
C796        C797   1.414       .  A
C796        C801   1.451       .  S
C797        C798   1.409       .  A
C797        C804   1.450       .  S
C798        C799   1.418       .  A
C799        C800   1.410       .  A
C799        C802   1.453       .  S
C800        C803   1.452       .  S
C801        N808   1.157       .  T
C802        N807   1.158       .  T
C803        N805   1.157       .  T
C804        N806   1.157       .  T
C809        C810   1.428       .  A
C809        C814   1.424       .  A
C810        C811   1.415       .  A
C810        C815   1.450       .  S
C811        C812   1.410       .  A
C811        C818   1.450       .  S
C812        C813   1.406       .  A
C813        C814   1.407       .  A
C813        C816   1.447       .  S
C814        C817   1.449       .  S
C815        N822   1.158       .  T
C816        N821   1.157   1_455  T
C817        N819   1.157       .  T
C818        N820   1.157   1_554  T
C823        C824   1.408       .  A
C823        C828   1.412       .  A
C824        C825   1.406       .  A
C824        C829   1.451       .  S
C825        C826   1.414       .  A
C825        C832   1.453       .  S
C826        C827   1.408       .  A
C827        C828   1.409       .  A
C827        C830   1.450       .  S
C828        C831   1.451       .  S
C829        N836   1.157       .  T
C830        N835   1.157       .  T
C831        N833   1.157       .  T
C832        N834   1.157       .  T
C837        C838   1.412       .  A
C837        C842   1.413       .  A
C838        C839   1.405       .  A
C838        C843   1.452       .  S
C839        C840   1.415       .  A
C839        C846   1.453       .  S
C840        C841   1.413       .  A
C841        C842   1.418       .  A
C841        C844   1.449       .  S
C842        C845   1.449       .  S
C843        N850   1.157       .  T
C844        N849   1.157       .  T
C845        N847   1.157       .  T
C846        N848   1.158   1_545  T
C851        C852   1.412       .  A
C851        C856   1.411       .  A
C852        C853   1.404       .  A
C852        C857   1.452       .  S
C853        C854   1.409       .  A
C853        C860   1.452       .  S
C854        C855   1.411       .  A
C855        C856   1.411       .  A
C855        C858   1.451       .  S
C856        C859   1.450       .  S
C857        N864   1.157       .  T
C858        N863   1.157       .  T
C859        N861   1.157       .  T
C860        N862   1.157       .  T
C865        C866   1.419       .  A
C865        C870   1.415       .  A
C866        C867   1.409       .  A
C866        C871   1.451       .  S
C867        C868   1.411       .  A
C867        C874   1.452       .  S
C868        C869   1.414       .  A
C869        C870   1.419       .  A
C869        C872   1.449       .  S
C870        C873   1.450       .  S
C871        N878   1.158   1_545  T
C872        N877   1.157       .  T
C873        N875   1.157       .  T
C874        N876   1.157       .  T
C879        C880   1.411       .  A
C879        C884   1.414       .  A
C880        C881   1.405       .  A
C880        C885   1.451       .  S
C881        C882   1.410       .  A
C881        C888   1.452       .  S
C882        C883   1.411       .  A
C883        C884   1.408       .  A
C883        C886   1.452       .  S
C884        C887   1.451       .  S
C885        N892   1.157       .  T
C886        N891   1.158       .  T
C887        N889   1.157       .  T
C888        N890   1.157       .  T
C893        C894   1.413       .  A
C893        C898   1.419       .  A
C894        C895   1.409       .  A
C894        C899   1.454       .  S
C895        C896   1.422       .  A
C895        C902   1.451   1_655  S
C896        C897   1.415       .  A
C897        C898   1.417       .  A
C897        C900   1.449   1_554  S
C898        C901   1.450       .  S
C899        N906   1.158       .  T
C900        N905   1.157       .  T
C901        N903   1.157       .  T
C902        N904   1.156       .  T
C907        C908   1.410       .  A
C907        C912   1.413       .  A
C908        C909   1.410       .  A
C908        C913   1.451       .  S
C909        C910   1.414       .  A
C909        C916   1.451       .  S
C910        C911   1.409       .  A
C911        C912   1.409       .  A
C911        C914   1.450       .  S
C912        C915   1.451       .  S
C913        N920   1.157       .  T
C914        N919   1.157       .  T
C915        N917   1.157       .  T
C916        N918   1.157       .  T
C921        C922   1.410       .  A
C921        C926   1.411       .  A
C922        C923   1.407       .  A
C922        C927   1.451       .  S
C923        C924   1.411       .  A
C923        C930   1.451       .  S
C924        C925   1.409       .  A
C925        C926   1.408       .  A
C925        C928   1.451       .  S
C926        C929   1.450       .  S
C927        N934   1.157       .  T
C928        N933   1.157       .  T
C929        N931   1.157       .  T
C930        N932   1.157       .  T
C935        C936   1.405       .  A
C935        C940   1.409       .  A
C936        C937   1.415       .  A
C936        C941   1.449       .  S
C937        C938   1.431       .  A
C937        C944   1.450       .  S
C938        C939   1.434       .  A
C939        C940   1.423       .  A
C939        C942   1.448       .  S
C940        C943   1.450       .  S
C941        N948   1.158   1_565  T
C942        N947   1.158       .  T
C943        N945   1.157       .  T
C944        N946   1.158       .  T
C949        C950   1.417       .  A
C949        C954   1.411       .  A
C950        C951   1.418       .  A
C950        C955   1.451       .  S
C951        C952   1.416       .  A
C951        C958   1.451       .  S
C952        C953   1.421       .  A
C953        C954   1.411       .  A
C953        C956   1.452       .  S
C954        C957   1.452       .  S
C955        N962   1.157       .  T
C956        N961   1.157       .  T
C957        N959   1.157       .  T
C958        N960   1.158       .  T
C963        C964   1.418       .  A
C963        C968   1.414       .  A
C964        C965   1.421       .  A
C964        C969   1.449       .  S
C965        C966   1.412       .  A
C965        C972   1.450       .  S
C966        C967   1.415       .  A
C967        C968   1.408       .  A
C967        C970   1.453       .  S
C968        C971   1.452       .  S
C969        N976   1.157       .  T
C970        N975   1.157       .  T
C971        N973   1.157       .  T
C972        N974   1.158       .  T
C977        C978   1.414       .  A
C977        C982   1.416   1_556  A
C978        C979   1.418   1_556  A
C978        C983   1.450       .  S
C979        C980   1.422       .  A
C979        C986   1.451   1_554  S
C980        C981   1.423       .  A
C981        C982   1.415       .  A
C981        C984   1.450       .  S
C982        C985   1.454       .  S
C983        N990   1.157       .  T
C984        N989   1.157       .  T
C985        N987   1.157   1_565  T
C986        N988   1.157       .  T
C991        C992   1.413       .  A
C991        C996   1.417       .  A
C992        C993   1.412       .  A
C992        C997   1.453       .  S
C993        C994   1.420       .  A
C993       C1000   1.452       .  S
C994        C995   1.412       .  A
C995        C996   1.417       .  A
C995        C998   1.451       .  S
C996        C999   1.450       .  S
C997       N1004   1.157       .  T
C998       N1003   1.157       .  T
C999       N1001   1.157       .  T
C1000      N1002   1.158       .  T
C1005      C1006   1.417       .  A
C1005      C1010   1.424       .  A
C1006      C1007   1.420       .  A
C1006      C1011   1.449       .  S
C1007      C1008   1.411       .  A
C1007      C1014   1.449       .  S
C1008      C1009   1.409       .  A
C1009      C1010   1.409       .  A
C1009      C1012   1.454       .  S
C1010      C1013   1.453       .  S
C1011      N1018   1.157       .  T
C1012      N1017   1.157       .  T
C1013      N1015   1.158       .  T
C1014      N1016   1.157       .  T
C1019      C1020   1.417       .  A
C1019      C1024   1.419       .  A
C1020      C1021   1.409       .  A
C1020      C1025   1.452       .  S
C1021      C1022   1.418       .  A
C1021      C1028   1.454       .  S
C1022      C1023   1.411       .  A
C1023      C1024   1.412       .  A
C1023      C1026   1.450       .  S
C1024      C1027   1.450       .  S
C1025      N1032   1.157       .  T
C1026      N1031   1.157       .  T
C1027      N1029   1.157       .  T
C1028      N1030   1.157       .  T
C1033      C1034   1.412       .  A
C1033      C1038   1.419       .  A
C1034      C1035   1.409       .  A
C1034      C1039   1.451       .  S
C1035      C1036   1.412       .  A
C1035      C1042   1.451       .  S
C1036      C1037   1.409       .  A
C1037      C1038   1.410       .  A
C1037      C1040   1.452       .  S
C1038      C1041   1.451       .  S
C1039      N1046   1.157       .  T
C1040      N1045   1.158       .  T
C1041      N1043   1.157       .  T
C1042      N1044   1.157       .  T
C1047      C1048   1.411       .  A
C1047      C1052   1.411       .  A
C1048      C1049   1.408       .  A
C1048      C1053   1.451       .  S
C1049      C1050   1.411       .  A
C1049      C1056   1.451       .  S
C1050      C1051   1.411       .  A
C1051      C1052   1.408       .  A
C1051      C1054   1.450       .  S
C1052      C1055   1.451       .  S
C1053      N1060   1.157       .  T
C1054      N1059   1.157       .  T
C1055      N1057   1.157       .  T
C1056      N1058   1.157       .  T
