geometry optimzed in LAMMPS
_audit_creation_date              2020-12-01 
_audit_creation_method            'lammps2cif' 
_symmetry_space_group_name_H-M    'P1' 
_symmetry_Int_Tables_number       1 
_symmetry_cell_setting            triclinic 
loop_ 
_symmetry_equiv_pos_as_xyz 
  x,y,z 
_cell_length_a                    31.13256972 
_cell_length_b                    31.431468219221017 
_cell_length_c                    51.15673736424817 
_cell_angle_alpha                 89.81849616116166 
_cell_angle_beta                  89.80325819981623 
_cell_angle_gamma                 90.11675522201757 
loop_ 
_atom_site_label 
_atom_site_type_symbol 
_atom_site_fract_x 
_atom_site_fract_y 
_atom_site_fract_z 
_atom_site_charge 
O1          O  0.12968155  0.83198019  0.51326314    -0.71700
O2          O  0.02769733  0.84740752  0.55375123    -0.71900
O3          O  0.05547237  0.87489526  0.50772206    -0.71800
O4          O  0.10037641  0.80310799  0.55976701    -0.71800
O5          O  0.13134495  0.85700811  0.57850755    -0.71700
O6          O  0.08082050  0.93021958  0.52752779    -0.71800
O7          O  0.05749317  0.90012617  0.57389839    -0.71700
O8          O  0.15706697  0.88822862  0.53140227    -0.71900
V9          V  0.07916638  0.84035978  0.53393582     1.35200
V10         V  0.10658526  0.89284103  0.55232819     1.35200
C11         C  0.16053932  0.85806366  0.51524651     0.77500
C12         C  0.02513408  0.87650457  0.57083840     0.77600
C13         C  0.05656044  0.91476797  0.51015118     0.77500
C14         C  0.12188744  0.81778408  0.57850044     0.77400
O15         O  0.86723718  0.85917010  0.71119421    -0.71700
O16         O  0.87855722  0.76080155  0.66878852    -0.71900
O17         O  0.90561589  0.84145398  0.66507424    -0.71800
O18         O  0.84104971  0.77700300  0.71411775    -0.71800
O19         O  0.78204438  0.79862107  0.69590499    -0.71700
O20         O  0.84790046  0.85270152  0.64239786    -0.71800
O21         O  0.81686147  0.77427614  0.65099613    -0.71700
O22         O  0.81235254  0.87885102  0.68808207    -0.71900
V23         V  0.87201324  0.81021372  0.68952757     1.35200
V24         V  0.81579640  0.82616007  0.66985069     1.35200
C25         C  0.83863995  0.88658382  0.70627264     0.77500
C26         C  0.84899488  0.75013966  0.65318445     0.77600
C27         C  0.88835089  0.85506781  0.64433620     0.77500
C28         C  0.80064207  0.77532735  0.71258805     0.77400
O29         O  0.11762394  0.57493269  0.70992037    -0.71700
O30         O  0.11985065  0.67702460  0.66993292    -0.71900
O31         O  0.08465559  0.60015499  0.66382344    -0.71800
O32         O  0.15194531  0.65379485  0.71566267    -0.71800
O33         O  0.21003451  0.63341130  0.69593746    -0.71700
O34         O  0.14232343  0.57907869  0.64373299    -0.71800
O35         O  0.17744263  0.65588739  0.65013896    -0.71700
O36         O  0.17581099  0.55425825  0.69034242    -0.71900
V37         V  0.11967020  0.62578598  0.68956489     1.35200
V38         V  0.17533297  0.60566190  0.67058502     1.35200
C39         C  0.14613607  0.54679046  0.70670116     0.77500
C40         C  0.14902199  0.68394114  0.65310411     0.77600
C41         C  0.10181556  0.58255030  0.64425922     0.77500
C42         C  0.19222946  0.65580309  0.71344785     0.77400
O43         O  0.86444433  0.59924205  0.50996324    -0.71700
O44         O  0.96621844  0.58725143  0.55114974    -0.71900
O45         O  0.93857376  0.55515127  0.50624718    -0.71800
O46         O  0.89429404  0.63275132  0.55525783    -0.71800
O47         O  0.86674584  0.58100817  0.57799252    -0.71700
O48         O  0.90768529  0.50282339  0.52657273    -0.71800
O49         O  0.93702715  0.53390400  0.57127331    -0.71700
O50         O  0.83440906  0.54892507  0.53277970    -0.71900
V51         V  0.91495713  0.59266703  0.53095001     1.35200
V52         V  0.88660798  0.54268745  0.55158402     1.35200
C53         C  0.83199028  0.57580910  0.51443818     0.77500
C54         C  0.96881490  0.55830989  0.56844878     0.77600
C55         C  0.93359397  0.51559579  0.50905667     0.77500
C56         C  0.87658742  0.62004605  0.57604110     0.77400
O57         O  0.61614169  0.57168415  0.76346685    -0.71700
O58         O  0.62680095  0.67594164  0.80124160    -0.71900
O59         O  0.66089354  0.64520349  0.75791297    -0.71800
O60         O  0.58049579  0.60455662  0.80734431    -0.71800
O61         O  0.63163886  0.57534476  0.82989678    -0.71700
O62         O  0.71350717  0.62093572  0.78137484    -0.71800
O63         O  0.67662665  0.64772609  0.82492537    -0.71700
O64         O  0.66983698  0.54606540  0.78531941    -0.71900
V65         V  0.62201684  0.62340780  0.78283929     1.35200
V66         V  0.67184193  0.59751577  0.80481673     1.35200
C67         C  0.64186812  0.54122953  0.76768290     0.77500
C68         C  0.65383390  0.67967761  0.81961974     0.77600
C69         C  0.70052878  0.64424016  0.76279855     0.77500
C70         C  0.59233771  0.58523577  0.82770135     0.77400
O71         O  0.34737303  0.59475476  0.96214652    -0.71700
O72         O  0.44791665  0.59384606  0.91943087    -0.71900
O73         O  0.37231571  0.63339026  0.91755337    -0.71800
O74         O  0.42476736  0.55617152  0.96364954    -0.71800
O75         O  0.39691409  0.50314198  0.94279518    -0.71700
O76         O  0.34938482  0.58132191  0.89353374    -0.71800
O77         O  0.42342766  0.53922173  0.89848949    -0.71700
O78         O  0.32009593  0.54455880  0.93830183    -0.71900
V79         V  0.39730900  0.59349169  0.94035809     1.35200
V80         V  0.37252784  0.54296803  0.91886203     1.35200
C81         C  0.31617598  0.57019805  0.95718863     0.77500
C82         C  0.45312227  0.56599070  0.90182785     0.77600
C83         C  0.35464619  0.62090399  0.89679311     0.77500
C84         C  0.42234534  0.51665142  0.96026204     0.77400
O85         O  0.36661963  0.86394310  0.76347477    -0.71700
O86         O  0.36761012  0.76700308  0.80866083    -0.71900
O87         O  0.33086319  0.78553552  0.76316257    -0.71800
O88         O  0.40461749  0.84417956  0.80841482    -0.71800
O89         O  0.35017733  0.86860535  0.83037864    -0.71700
O90         O  0.27513286  0.81052594  0.78339661    -0.71800
O91         O  0.31187433  0.79209687  0.82880619    -0.71700
O92         O  0.31233102  0.88904197  0.78518148    -0.71900
V93         V  0.36629698  0.81575253  0.78625337     1.35200
V94         V  0.31334878  0.83974924  0.80642088     1.35200
C95         C  0.34022311  0.89389305  0.76751922     0.77500
C96         C  0.33947502  0.76315309  0.82652518     0.77600
C97         C  0.29076177  0.78620440  0.76604945     0.77500
C98         C  0.39046882  0.86596242  0.82714437     0.77400
O99         O  0.63254035  0.83748298  0.95581685    -0.71700
O100        O  0.53354788  0.84586734  0.91276844    -0.71900
O101        O  0.60878930  0.80438243  0.90942160    -0.71800
O102        O  0.55585035  0.87817619  0.95824894    -0.71800
O103        O  0.58373965  0.93277902  0.93850778    -0.71700
O104        O  0.63628654  0.85863608  0.88888104    -0.71800
O105        O  0.56177724  0.90029835  0.89295479    -0.71700
O106        O  0.66088549  0.89132932  0.93535645    -0.71900
V107        V  0.58357852  0.84245092  0.93375124     1.35200
V108        V  0.61053120  0.89469388  0.91447514     1.35200
C109        C  0.66378510  0.86284148  0.95277517     0.77500
C110        C  0.53018021  0.87561304  0.89624250     0.77600
C111        C  0.62968917  0.81893948  0.89014613     0.77500
C112        C  0.55742998  0.91805648  0.95518542     0.77400
O113        O  0.62876340  0.33152423  0.00606208    -0.71700
O114        O  0.52807834  0.33138861  0.04912285    -0.71900
O115        O  0.54969306  0.36700522  0.00404303    -0.71800
O116        O  0.60576889  0.29428547  0.05178644    -0.71800
O117        O  0.62651512  0.34873684  0.07453427    -0.71700
O118        O  0.57679556  0.42193301  0.02338270    -0.71800
O119        O  0.55130339  0.38839627  0.06815623    -0.71700
O120        O  0.65451443  0.38362664  0.02899001    -0.71900
V121        V  0.57890172  0.33198755  0.02807168     1.35200
V122        V  0.60222415  0.38459900  0.04824702     1.35200
C123        C  0.65897784  0.35764873  0.01039221     0.77500
C124        C  0.52184888  0.36117688  0.06531846     0.77600
C125        C  0.55100023  0.40677241  0.00665026     0.77500
C126        C  0.62307452  0.30878268  0.07220008     0.77400
O127        O  0.36538564  0.35691429  0.20430838    -0.71700
O128        O  0.36103796  0.25898679  0.16032910    -0.71900
O129        O  0.39941905  0.33510016  0.15789649    -0.71800
O130        O  0.32811312  0.27920235  0.20656130    -0.71800
O131        O  0.27179586  0.30550101  0.18800582    -0.71700
O132        O  0.34361401  0.35864588  0.13696494    -0.71800
O133        O  0.30378081  0.28381566  0.14192583    -0.71700
O134        O  0.31047323  0.38268540  0.18379747    -0.71900
V135        V  0.36243446  0.30828012  0.18198477     1.35200
V136        V  0.30850253  0.33257963  0.16319375     1.35200
C137        C  0.33840499  0.38673986  0.20146708     0.77500
C138        C  0.33115221  0.25454425  0.14373906     0.77600
C139        C  0.38395285  0.35436965  0.13846910     0.77500
C140        C  0.28776908  0.28010671  0.20455010     0.77400
O141        O  0.60851813  0.07260193  0.20877155    -0.71700
O142        O  0.61269479  0.16731253  0.16196427    -0.71900
O143        O  0.57314946  0.09145702  0.16239426    -0.71800
O144        O  0.64724817  0.14972629  0.20821479    -0.71800
O145        O  0.70250073  0.12056826  0.18966965    -0.71700
O146        O  0.62786710  0.06615023  0.14109833    -0.71800
O147        O  0.66912029  0.14063305  0.14346332    -0.71700
O148        O  0.66159712  0.04381644  0.18768416    -0.71900
V149        V  0.61146415  0.11954971  0.18504005     1.35200
V150        V  0.66427984  0.09303794  0.16602199     1.35200
C151        C  0.63383817  0.04152289  0.20573968     0.77500
C152        C  0.64215385  0.17039539  0.14486334     0.77600
C153        C  0.58762010  0.07053351  0.14332253     0.77500
C154        C  0.68749771  0.14715200  0.20584832     0.77400
O155        O  0.35017785  0.09398403  0.00861331    -0.71700
O156        O  0.44940281  0.08697002  0.05202371    -0.71900
O157        O  0.42720681  0.05347006  0.00665470    -0.71800
O158        O  0.37396136  0.12829499  0.05441153    -0.71800
O159        O  0.34663398  0.07470859  0.07567338    -0.71700
O160        O  0.39944445  0.99925439  0.02686109    -0.71800
O161        O  0.42123592  0.03297164  0.07224737    -0.71700
O162        O  0.32200532  0.04072428  0.02971097    -0.71900
V163        V  0.39936397  0.08964979  0.03072922     1.35200
V164        V  0.37251290  0.03791138  0.05053718     1.35200
C165        C  0.31869162  0.06903826  0.01220889     0.77500
C166        C  0.45264459  0.05796100  0.06911366     0.77600
C167        C  0.42568082  0.01368816  0.01002492     0.77500
C168        C  0.35293296  0.11439503  0.07377627     0.77400
O169        O  0.86333438  0.35035052  0.26105308    -0.71700
O170        O  0.86278342  0.24980626  0.30231933    -0.71900
O171        O  0.82487472  0.27325670  0.25852618    -0.71800
O172        O  0.90209162  0.32537216  0.30518497    -0.71800
O173        O  0.84893226  0.34835912  0.32877497    -0.71700
O174        O  0.77082590  0.29819726  0.28038241    -0.71800
O175        O  0.80829023  0.27370832  0.32414279    -0.71700
O176        O  0.81084055  0.37528925  0.28439251    -0.71900
V177        V  0.86222784  0.30044871  0.28213198     1.35200
V178        V  0.81070599  0.32380147  0.30386515     1.35200
C179        C  0.83756691  0.38032495  0.26598023     0.77500
C180        C  0.83449394  0.24399744  0.31972386     0.77600
C181        C  0.78489170  0.27385613  0.26263360     0.77500
C182        C  0.88900330  0.34389690  0.32554253     0.77400
O183        O  0.13656495  0.33759856  0.45576857    -0.71700
O184        O  0.03752238  0.33795440  0.41163816    -0.71900
O185        O  0.11439263  0.29927639  0.41073862    -0.71800
O186        O  0.05807851  0.37512492  0.45642231    -0.71800
O187        O  0.08456444  0.42895422  0.43533577    -0.71700
O188        O  0.13942326  0.35251361  0.38810058    -0.71800
O189        O  0.06361248  0.39208249  0.39062521    -0.71700
O190        O  0.16255280  0.39068731  0.43355797    -0.71900
V191        V  0.08740171  0.33850871  0.43332556     1.35200
V192        V  0.11242296  0.38998347  0.41245164     1.35200
C193        C  0.16651482  0.36441861  0.45213251     0.77500
C194        C  0.03353934  0.36564815  0.39370107     0.77600
C195        C  0.13464645  0.31272792  0.39097706     0.77500
C196        C  0.05894945  0.41480420  0.45256365     0.77400
O197        O  0.11366041  0.06968267  0.25875708    -0.71700
O198        O  0.11619450  0.16978029  0.30072823    -0.71900
O199        O  0.15136539  0.14715238  0.25554866    -0.71800
O200        O  0.07781850  0.09366800  0.30397376    -0.71800
O201        O  0.13256201  0.06835500  0.32510133    -0.71700
O202        O  0.20684871  0.12441049  0.27666388    -0.71800
O203        O  0.17071226  0.14472644  0.32187621    -0.71700
O204        O  0.16976034  0.04614347  0.27922808    -0.71900
V205        V  0.11585602  0.11938020  0.28007906     1.35200
V206        V  0.16893521  0.09601476  0.30019928     1.35200
C207        C  0.14116486  0.04057315  0.26205526     0.77500
C208        C  0.14428195  0.17462632  0.31830867     0.77600
C209        C  0.19145926  0.14806663  0.25899692     0.77500
C210        C  0.09234490  0.07320377  0.32321513     0.77400
O211        O  0.85085436  0.08949505  0.45455505    -0.71700
O212        O  0.94852000  0.08182623  0.41003631    -0.71900
O213        O  0.87254418  0.12124685  0.40805729    -0.71800
O214        O  0.92792790  0.05097454  0.45668803    -0.71800
O215        O  0.90163450  0.99500579  0.43803096    -0.71700
O216        O  0.84467302  0.06619389  0.38881251    -0.71800
O217        O  0.92065604  0.02651377  0.39136896    -0.71700
O218        O  0.82372697  0.03382498  0.43576923    -0.71900
V219        V  0.89926470  0.08478069  0.43203131     1.35200
V220        V  0.87293258  0.03138008  0.41399225     1.35200
C221        C  0.82023131  0.06329648  0.45236477     0.77500
C222        C  0.95127809  0.05256258  0.39313717     0.77600
C223        C  0.84977004  0.10607330  0.39008302     0.77500
C224        C  0.92693406  0.01106172  0.45463261     0.77400
O225        O  0.61608851  0.35763245  0.70816997    -0.71700
O226        O  0.61437323  0.25911888  0.66460260    -0.71900
O227        O  0.64931486  0.27818906  0.71047425    -0.71800
O228        O  0.58007124  0.33683336  0.66227654    -0.71800
O229        O  0.63655042  0.35959820  0.64144412    -0.71700
O230        O  0.70676492  0.29969601  0.69017314    -0.71800
O231        O  0.67115723  0.28206214  0.64445938    -0.71700
O232        O  0.67315571  0.37958021  0.68786760    -0.71900
V233        V  0.61610399  0.30861128  0.68607418     1.35200
V234        V  0.67086527  0.33017550  0.66653374     1.35200
C235        C  0.64511159  0.38568920  0.70537461     0.77500
C236        C  0.64281608  0.25359063  0.64718954     0.77600
C237        C  0.68943805  0.27658273  0.70761078     0.77500
C238        C  0.59606026  0.35666667  0.64316293     0.77400
O239        O  0.35548194  0.33870234  0.50916396    -0.71700
O240        O  0.45608094  0.34181955  0.55147881    -0.71900
O241        O  0.37978797  0.30279334  0.55444264    -0.71800
O242        O  0.43358972  0.37724189  0.50658519    -0.71800
O243        O  0.40699086  0.43142190  0.52695994    -0.71700
O244        O  0.35546485  0.35646049  0.57659571    -0.71800
O245        O  0.43087577  0.39668090  0.57183152    -0.71700
O246        O  0.32936291  0.39173365  0.53093135    -0.71900
V247        V  0.40543699  0.34118746  0.53070952     1.35200
V248        V  0.38079077  0.39305968  0.55103575     1.35200
C249        C  0.32465875  0.36411220  0.51318632     0.77500
C250        C  0.46110983  0.37044254  0.56852879     0.77600
C251        C  0.36056920  0.31672795  0.57439670     0.77500
C252        C  0.43263648  0.41699388  0.50995108     0.77400
O253        O  0.36819164  0.07729651  0.70875906    -0.71700
O254        O  0.36694193  0.17502592  0.66416581    -0.71900
O255        O  0.32934007  0.15382893  0.70917546    -0.71800
O256        O  0.40733985  0.10009998  0.66421323    -0.71800
O257        O  0.35507229  0.07454093  0.64105551    -0.71700
O258        O  0.27556575  0.12558864  0.68850552    -0.71800
O259        O  0.31251661  0.14824715  0.64366713    -0.71700
O260        O  0.31676637  0.04978086  0.68570052    -0.71900
V261        V  0.36689366  0.12589813  0.68624215     1.35200
V262        V  0.31593741  0.09986056  0.66526106     1.35200
C263        C  0.34328979  0.04626860  0.70410394     0.77500
C264        C  0.33913758  0.17806608  0.64616879     0.77600
C265        C  0.28942132  0.15010795  0.70624456     0.77500
C266        C  0.39507632  0.07939368  0.64461347     0.77400
O267        O  0.63137476  0.09510461  0.50701256    -0.71700
O268        O  0.53407989  0.09436353  0.55221936    -0.71900
O269        O  0.61078709  0.13270993  0.55241521    -0.71800
O270        O  0.55324917  0.05770346  0.50717197    -0.71800
O271        O  0.58087263  0.00357445  0.52719628    -0.71700
O272        O  0.63537137  0.07927074  0.57484803    -0.71800
O273        O  0.56003168  0.03924767  0.57232086    -0.71700
O274        O  0.65868678  0.04287325  0.52935664    -0.71900
V275        V  0.58315630  0.09392766  0.53000227     1.35200
V276        V  0.60857577  0.04221675  0.55035685     1.35200
C277        C  0.66195200  0.06945728  0.51093008     0.77500
C278        C  0.53028145  0.06604522  0.56969100     0.77600
C279        C  0.63086990  0.11904024  0.57205265     0.77500
C280        C  0.55477389  0.01804660  0.51039450     0.77400
O281        O  0.12001652  0.35922457  0.76063616    -0.71700
O282        O  0.11554899  0.25829097  0.80206974    -0.71900
O283        O  0.08179519  0.33622470  0.80550401    -0.71800
O284        O  0.15237259  0.27992143  0.75703103    -0.71800
O285        O  0.20920715  0.30029061  0.77797341    -0.71700
O286        O  0.13739709  0.35637675  0.82782170    -0.71800
O287        O  0.17210950  0.27894676  0.82300811    -0.71700
O288        O  0.17587141  0.37977356  0.78238834    -0.71900
V289        V  0.11857123  0.30900728  0.78166728     1.35200
V290        V  0.17265330  0.32877502  0.80225640     1.35200
C291        C  0.14878393  0.38703995  0.76462711     0.77500
C292        C  0.14341113  0.25126122  0.81960130     0.77600
C293        C  0.09694772  0.35431302  0.82539625     0.77500
C294        C  0.19241351  0.27829729  0.75992281     0.77400
O295        O  0.84935251  0.34102632  0.95417147    -0.71700
O296        O  0.94750832  0.34473498  0.90942587    -0.71900
O297        O  0.92723375  0.37943863  0.95488752    -0.71800
O298        O  0.87075376  0.30541131  0.90841500    -0.71800
O299        O  0.84607542  0.35933227  0.88647530    -0.71700
O300        O  0.89863803  0.43395060  0.93557764    -0.71800
O301        O  0.92153661  0.40040364  0.89013468    -0.71700
O302        O  0.82128739  0.39338926  0.93249096    -0.71900
V303        V  0.89795093  0.34368573  0.93139461     1.35200
V304        V  0.87209965  0.39575927  0.91167204     1.35200
C305        C  0.81810600  0.36608296  0.95063631     0.77500
C306        C  0.95179139  0.37405901  0.89254248     0.77600
C307        C  0.92469183  0.41925441  0.95225091     0.77500
C308        C  0.85008410  0.31949161  0.88910594     0.77400
O309        O  0.86073133  0.06942984  0.76417165    -0.71700
O310        O  0.85867923  0.17283948  0.80265386    -0.71900
O311        O  0.89666272  0.09695677  0.80914801    -0.71800
O312        O  0.82394928  0.14640989  0.75839376    -0.71800
O313        O  0.76786217  0.12369252  0.77963264    -0.71700
O314        O  0.84098875  0.07589023  0.83145713    -0.71800
O315        O  0.80227023  0.15103853  0.82367557    -0.71700
O316        O  0.80585833  0.04662616  0.78648804    -0.71900
V317        V  0.85897686  0.12065110  0.78397009     1.35200
V318        V  0.80534976  0.09932240  0.80479871     1.35200
C319        C  0.83363730  0.04027627  0.76883489     0.77500
C320        C  0.82936283  0.18019496  0.81919492     0.77600
C321        C  0.88130960  0.08014855  0.82960014     0.77500
C322        C  0.78375302  0.14596108  0.76133959     0.77400
O323        O  0.12587811  0.09952079  0.95979199    -0.71700
O324        O  0.02274137  0.08851376  0.92017487    -0.71900
O325        O  0.05020640  0.05836325  0.96542277    -0.71800
O326        O  0.09644396  0.13136759  0.91399691    -0.71800
O327        O  0.12375433  0.07741247  0.89333488    -0.71700
O328        O  0.07580806  0.00353322  0.94505565    -0.71800
O329        O  0.04987659  0.03483553  0.89963995    -0.71700
O330        O  0.15209867  0.04504720  0.93928717    -0.71900
V331        V  0.07467523  0.09344663  0.93952026     1.35200
V332        V  0.10028103  0.04125230  0.91988022     1.35200
C333        C  0.15663306  0.07376766  0.95631624     0.77500
C334        C  0.01859448  0.05956526  0.90310881     0.77600
C335        C  0.05184129  0.01858260  0.96278880     0.77500
C336        C  0.11585661  0.11687763  0.89429807     0.77400
O337        O  0.37563797  0.56929642  0.26116435    -0.71700
O338        O  0.37462695  0.66957072  0.30281391    -0.71900
O339        O  0.41288834  0.59357669  0.30601039    -0.71800
O340        O  0.33826021  0.64687034  0.25816369    -0.71800
O341        O  0.28311237  0.62388202  0.27992119    -0.71700
O342        O  0.35860821  0.56902232  0.32814752    -0.71800
O343        O  0.32024173  0.64502534  0.32465637    -0.71700
O344        O  0.32030329  0.54572423  0.28267318    -0.71900
V345        V  0.37426643  0.61911241  0.28238817     1.35200
V346        V  0.32159165  0.59598638  0.30330436     1.35200
C347        C  0.34813678  0.54018553  0.26492570     0.77500
C348        C  0.34689603  0.67460652  0.32074064     0.77600
C349        C  0.39886465  0.57389077  0.32581645     0.77500
C350        C  0.29817303  0.64735648  0.26191471     0.77400
O351        O  0.63991110  0.59488141  0.45889202    -0.71700
O352        O  0.54262800  0.58632060  0.41367864    -0.71900
O353        O  0.56330720  0.55345286  0.45973687    -0.71800
O354        O  0.61768640  0.62852545  0.41269309    -0.71800
O355        O  0.64659801  0.57543299  0.39210517    -0.62100
O356        O  0.59276961  0.49955559  0.44052305    -0.71800
O357        O  0.57215797  0.53249726  0.39440600    -0.71700
O358        O  0.66946526  0.54202176  0.43856778    -0.71900
V359        V  0.59167640  0.58974469  0.43596821     1.35200
V360        V  0.61996623  0.53835127  0.41694594     1.35200
C361        C  0.67190505  0.57045342  0.45596743     0.77500
C362        C  0.54071580  0.55753115  0.39638507     0.77600
C363        C  0.56580294  0.51369436  0.45690365     0.77500
C364        C  0.64033940  0.61508226  0.39404674     0.77400
O365        O  0.35179780  0.82675229  0.46034683    -0.71700
O366        O  0.45707341  0.83934182  0.42274311    -0.71900
O367        O  0.42667916  0.86926645  0.46722288    -0.71800
O368        O  0.38439582  0.79549699  0.41521674    -0.71800
O369        O  0.35703381  0.84904139  0.39410688    -0.71700
O370        O  0.40167146  0.92347301  0.44608211    -0.71800
O371        O  0.43013999  0.89232467  0.40134450    -0.71700
O372        O  0.32619674  0.88122060  0.43969013    -0.71900
V373        V  0.40406891  0.83366815  0.44105956     1.35200
V374        V  0.37880705  0.88544987  0.42084887     1.35200
C375        C  0.32097578  0.85232533  0.45670966     0.77500
C376        C  0.46170674  0.86829416  0.40562874     0.77600
C377        C  0.42544258  0.90896219  0.46409054     0.77500
C378        C  0.36576308  0.80975016  0.39518135     0.77400
O379        O  0.60573491  0.85528268  0.26445355    -0.71700
O380        O  0.61921998  0.75402393  0.30493350    -0.71900
O381        O  0.57847295  0.82844519  0.31198301    -0.71800
O382        O  0.64510797  0.77961655  0.25808074    -0.71800
O383        O  0.70290970  0.80588158  0.27511670    -0.71700
O384        O  0.63610015  0.85377395  0.33015150    -0.71800
O385        O  0.67722312  0.78016805  0.32189636    -0.71700
O386        O  0.66279739  0.88154072  0.28264567    -0.71900
V387        V  0.61314201  0.80516430  0.28515667     1.35200
V388        V  0.66858190  0.83020268  0.30199321     1.35200
C389        C  0.63237570  0.88558031  0.26654718     0.77500
C390        C  0.65121917  0.74950229  0.31988996     0.77600
C391        C  0.59592954  0.84758314  0.33082269     0.77500
C392        C  0.68557555  0.78151704  0.25855612     0.77400
O393        O  0.12003286  0.85376432  0.20688388    -0.71700
O394        O  0.12141680  0.75124629  0.16704395    -0.71900
O395        O  0.15769574  0.77625892  0.21118128    -0.71800
O396        O  0.08254517  0.82686163  0.16251073    -0.71800
O397        O  0.13657535  0.84946796  0.13941182    -0.71700
O398        O  0.21260157  0.79965474  0.18939643    -0.71800
O399        O  0.17634540  0.77474531  0.14538422    -0.71700
O400        O  0.17401480  0.87700286  0.18414182    -0.71900
V401        V  0.12144765  0.80278006  0.18656343     1.35200
V402        V  0.17383483  0.82519520  0.16515428     1.35200
C403        C  0.14702868  0.88313765  0.20221667     0.77500
C404        C  0.14983038  0.74524440  0.14960616     0.77600
C405        C  0.19778683  0.77607290  0.20743755     0.77500
C406        C  0.09635216  0.84472448  0.14200338     0.77400
O407        O  0.85342573  0.82995918  0.00795913    -0.71700
O408        O  0.95399176  0.83623777  0.05084998    -0.71900
O409        O  0.88181028  0.78986205  0.05124110    -0.71800
O410        O  0.92739648  0.87407145  0.00747680    -0.71800
O411        O  0.89888034  0.92366881  0.03123668    -0.71700
O412        O  0.85126353  0.83726587  0.07566160    -0.71800
O413        O  0.92261180  0.88408908  0.07439572    -0.71700
O414        O  0.82387791  0.87861372  0.03199821    -0.71900
V415        V  0.90322699  0.83341953  0.02975741     1.35200
V416        V  0.87421994  0.87999089  0.05267477     1.35200
C417        C  0.82155001  0.85384559  0.01267854     0.77500
C418        C  0.95510446  0.86143949  0.07023867     0.77600
C419        C  0.86201498  0.79881197  0.07191294     0.77500
C420        C  0.92471920  0.91279654  0.01324940     0.77400
O421        O  0.12494505  0.59559737  0.01284994    -0.71700
O422        O  0.02503737  0.58932608  0.05616282    -0.71900
O423        O  0.10253353  0.62583105  0.06018493    -0.71800
O424        O  0.04594118  0.55995375  0.00915490    -0.71800
O425        O  0.07254716  0.50242242  0.02603926    -0.71700
O426        O  0.12426662  0.56837685  0.07980488    -0.71800
O427        O  0.04815395  0.53033848  0.07286525    -0.71700
O428        O  0.15048491  0.53996829  0.03252778    -0.71900
V429        V  0.07530338  0.59159146  0.03485845     1.35200
V430        V  0.09867584  0.53634708  0.05232891     1.35200
C431        C  0.15521865  0.56909785  0.01561120     0.77500
C432        C  0.01913340  0.55832891  0.07162308     0.77600
C433        C  0.12100438  0.60846773  0.07934581     0.77500
C434        C  0.04791645  0.51987750  0.00957362     0.77400
O435        O  0.86030270  0.57083092  0.21439486    -0.71700
O436        O  0.86482937  0.66427245  0.16731837    -0.71900
O437        O  0.82547598  0.64966597  0.21250947    -0.71800
O438        O  0.90003989  0.58720691  0.16876471    -0.71800
O439        O  0.84549257  0.56534172  0.14604064    -0.71700
O440        O  0.77032123  0.62209039  0.19313949    -0.71800
O441        O  0.80731575  0.64117548  0.14792835    -0.71700
O442        O  0.80799109  0.54391127  0.19179516    -0.71900
V443        V  0.86151124  0.61730766  0.19052268     1.35200
V444        V  0.80871290  0.59323285  0.17034571     1.35200
C445        C  0.83441080  0.54055634  0.21038829     0.77500
C446        C  0.83659885  0.66870062  0.14981151     0.77600
C447        C  0.78533163  0.64887511  0.20910868     0.77500
C448        C  0.88575519  0.56819425  0.14892340     0.77400
C449        C  0.90962877  0.57714524  0.10373982    -0.05700
C450        C  0.91549570  0.55637414  0.12771850     0.00200
C451        C  0.95272894  0.53173327  0.13186398    -0.08300
C452        C  0.98469690  0.53149055  0.11234314    -0.05700
C453        C  0.98081483  0.55565330  0.08918055     0.00200
C454        C  0.94167231  0.57752995  0.08431367    -0.08300
C455        C  0.93328052  0.60152777  0.05903904     0.62100
H456        H  0.88069925  0.59577471  0.10107399     0.12800
H457        H  0.01406595  0.51396238  0.11573811     0.12800
C458        C  0.95825335  0.50541366  0.15657182     0.62400
F459        F  0.89104067  0.61493114  0.05722958    -0.22800
F460        F  0.94148758  0.57534235  0.03799079    -0.20100
F461        F  0.95921036  0.63716844  0.05758766    -0.19800
F462        F  0.92321411  0.47871937  0.15969973    -0.19900
F463        F  0.96146622  0.53160021  0.17812088    -0.20200
F464        F  0.99485868  0.48051659  0.15555368    -0.22900
C465        C  0.81678070  0.76505620  0.10644799    -0.05700
C466        C  0.85496757  0.76508469  0.09172276     0.00200
C467        C  0.88700086  0.73372367  0.09690889    -0.08300
C468        C  0.87892133  0.70317055  0.11616710    -0.05700
C469        C  0.84077516  0.70275835  0.13039780     0.00200
C470        C  0.80892764  0.73384510  0.12574800    -0.08300
C471        C  0.76763372  0.73445510  0.14152306     0.62100
H472        H  0.79301728  0.78933135  0.10251406     0.12800
H473        H  0.90244792  0.67868053  0.12024358     0.12800
C474        C  0.93060445  0.73285288  0.08334302     0.62400
F475        F  0.74271775  0.76961170  0.13564972    -0.22800
F476        F  0.77713437  0.73562414  0.16788386    -0.20100
F477        F  0.74381966  0.69831681  0.13629484    -0.19800
F478        F  0.95034383  0.77188481  0.08589229    -0.19900
F479        F  0.92582905  0.72295992  0.05720080    -0.20200
F480        F  0.95789856  0.70290082  0.09417414    -0.22900
C481        C  0.02607863  0.87468339  0.13061993    -0.05700
C482        C  0.06489564  0.85753239  0.12170273     0.00200
C483        C  0.06893812  0.84601031  0.09502462    -0.08300
C484        C  0.03275134  0.84944092  0.07865915    -0.05700
C485        C  0.99289100  0.86380057  0.08806219     0.00200
C486        C  0.98983500  0.87816999  0.11445383    -0.08300
C487        C  0.94844353  0.89538432  0.12632621     0.62100
H488        H  0.02392576  0.88364584  0.15099787     0.12800
H489        H  0.03498799  0.83952409  0.05846347     0.12800
C490        C  0.11018248  0.82742994  0.08424199     0.62400
F491        F  0.95291468  0.90512016  0.15256100    -0.22800
F492        F  0.91608846  0.86533087  0.12432027    -0.20100
F493        F  0.93657881  0.93239200  0.11357348    -0.19800
F494        F  0.11934883  0.79008026  0.09734001    -0.19900
F495        F  0.14347950  0.85609905  0.08746043    -0.20200
F496        F  0.10717435  0.81827980  0.05784974    -0.22900
C497        C  0.16908560  0.66466005  0.09514490    -0.05700
C498        C  0.13648666  0.63539700  0.10080040     0.00200
C499        C  0.11426723  0.63777833  0.12488471    -0.08300
C500        C  0.12153648  0.67303335  0.14103181    -0.05700
C501        C  0.15081693  0.70525957  0.13406212     0.00200
C502        C  0.17798342  0.69898136  0.11186449    -0.08300
C503        C  0.21599502  0.72769694  0.10536204     0.62100
H504        H  0.18631817  0.66137424  0.07683583     0.12800
H505        H  0.10250237  0.67667681  0.15861659     0.12800
C506        C  0.08022337  0.60546607  0.13243747     0.62400
F507        F  0.24053042  0.71156042  0.08507051    -0.22800
F508        F  0.24243405  0.73113219  0.12694263    -0.20100
F509        F  0.20201244  0.76758245  0.09786985    -0.19800
F510        F  0.09676757  0.56476591  0.13075518    -0.19900
F511        F  0.04577182  0.60953583  0.11577308    -0.20200
F512        F  0.06555354  0.61130988  0.15775585    -0.22900
C513        C  0.69045828  0.71326912  0.23500177    -0.05700
C514        C  0.71115285  0.75111879  0.24269267     0.00200
C515        C  0.75578613  0.75563728  0.23808347    -0.08300
C516        C  0.77839521  0.72093363  0.22765133    -0.05700
C517        C  0.75810669  0.68217746  0.22133922     0.00200
C518        C  0.71310811  0.67834072  0.22484574    -0.08300
C519        C  0.68900635  0.63735922  0.21898632     0.62100
H520        H  0.65618485  0.71036078  0.23807178     0.12800
H521        H  0.81255360  0.72413961  0.22416958     0.12800
C522        C  0.77968120  0.79683540  0.24360352     0.62400
F523        F  0.64698138  0.63859706  0.22790444    -0.22800
F524        F  0.70906989  0.60345655  0.23116379    -0.20100
F525        F  0.68792277  0.63063161  0.19230105    -0.19800
F526        F  0.78503085  0.80174872  0.27024094    -0.19900
F527        F  0.75690244  0.83098741  0.23367241    -0.20200
F528        F  0.82000321  0.79731147  0.23209999    -0.22900
C529        C  0.53284238  0.83939650  0.39360296    -0.05700
C530        C  0.50197714  0.87133426  0.38978821     0.00200
C531        C  0.50878962  0.90180899  0.36944443    -0.08300
C532        C  0.54216688  0.89470463  0.35129202    -0.05700
C533        C  0.56949477  0.85965937  0.35355744     0.00200
C534        C  0.56627683  0.83278881  0.37568221    -0.08300
C535        C  0.59564292  0.79491366  0.37912459     0.62100
H536        H  0.52879544  0.81728040  0.40967625     0.12800
H537        H  0.54579611  0.91525314  0.33438825     0.12800
C538        C  0.48105231  0.94116240  0.36622429     0.62400
F539        F  0.58994887  0.77511289  0.40310956    -0.22800
F540        F  0.58696297  0.76558407  0.35981966    -0.20100
F541        F  0.63794712  0.80804405  0.37741041    -0.19800
F542        F  0.47702441  0.96181218  0.38995983    -0.19900
F543        F  0.44091778  0.92989338  0.35702398    -0.20200
F544        F  0.49897083  0.96974083  0.34862470    -0.22900
C545        C  0.64282139  0.63734300  0.34802114    -0.05700
C546        C  0.65493469  0.64532570  0.37388283     0.00200
C547        C  0.67367509  0.68486100  0.38038729    -0.08300
C548        C  0.67514066  0.71686899  0.36124537    -0.05700
C549        C  0.65681325  0.71104942  0.33642774     0.00200
C550        C  0.64302432  0.66975742  0.32902393    -0.08300
C551        C  0.62957068  0.65939530  0.30128969     0.62100
H552        H  0.63026436  0.60634332  0.34324925     0.12800
H553        H  0.68806290  0.74772991  0.36624874     0.12800
C554        C  0.69149159  0.69347580  0.40747275     0.62400
F555        F  0.66090670  0.67343102  0.28414802    -0.22800
F556        F  0.59094019  0.67874114  0.29547114    -0.20100
F557        F  0.62452543  0.61603421  0.29761537    -0.19800
F558        F  0.71783916  0.66027740  0.41503007    -0.19900
F559        F  0.65833341  0.69759572  0.42530684    -0.20200
F560        F  0.71550220  0.73058719  0.40802257    -0.22900
C561        C  0.29235602  0.71432689  0.23665397    -0.05700
C562        C  0.27124172  0.67841733  0.24719409     0.00200
C563        C  0.22603369  0.67527924  0.24474558    -0.08300
C564        C  0.20380350  0.70876069  0.23245742    -0.05700
C565        C  0.22489204  0.74484151  0.22200490     0.00200
C566        C  0.27026438  0.74740739  0.22391471    -0.08300
C567        C  0.29568233  0.78480266  0.21303464     0.62100
H568        H  0.32685298  0.71664854  0.23869189     0.12800
H569        H  0.16929558  0.70637916  0.23048335     0.12800
C570        C  0.20114082  0.63654679  0.25428615     0.62400
F571        F  0.33859855  0.78310267  0.21996390    -0.22800
F572        F  0.27912005  0.82230935  0.22269985    -0.20100
F573        F  0.29366339  0.78495503  0.18603776    -0.19800
F574        F  0.20103410  0.63528658  0.28130429    -0.19900
F575        F  0.21978647  0.59989074  0.24458403    -0.20200
F576        F  0.15880771  0.63722144  0.24607893    -0.22900
C577        C  0.46907069  0.54287544  0.33659287    -0.05700
C578        C  0.43012308  0.55948202  0.34577936     0.00200
C579        C  0.42578278  0.56918675  0.37269291    -0.08300
C580        C  0.46249060  0.56690337  0.38872118    -0.05700
C581        C  0.50255512  0.55353637  0.37898339     0.00200
C582        C  0.50515815  0.53845596  0.35281598    -0.08300
C583        C  0.54579518  0.51904025  0.34148010     0.62100
H584        H  0.47141178  0.53479072  0.31607568     0.12800
H585        H  0.46035288  0.57645855  0.40901052     0.12800
C586        C  0.38325923  0.58346039  0.38425231     0.62400
F587        F  0.54119017  0.50839297  0.31538926    -0.22800
F588        F  0.55583961  0.48223538  0.35500391    -0.20100
F589        F  0.57935505  0.54759403  0.34325324    -0.19800
F590        F  0.35245835  0.55246706  0.38006601    -0.19900
F591        F  0.37041729  0.62111257  0.37267938    -0.20200
F592        F  0.38598943  0.59007934  0.41094329    -0.22900
C593        C  0.38598373  0.73628159  0.33834508    -0.05700
C594        C  0.34738973  0.71330952  0.33740800     0.00200
C595        C  0.31190970  0.72712482  0.35291032    -0.08300
C596        C  0.31820012  0.76070247  0.37075846    -0.05700
C597        C  0.35802162  0.78101048  0.37297877     0.00200
C598        C  0.39193877  0.76986627  0.35585392    -0.08300
C599        C  0.43500671  0.79226968  0.35676881     0.62100
H600        H  0.41255942  0.72637080  0.32612305     0.12800
H601        H  0.29262078  0.77015528  0.38389978     0.12800
C602        C  0.26765042  0.70702485  0.35087052     0.62400
F603        F  0.46222501  0.77941748  0.33685021    -0.22800
F604        F  0.45470202  0.78324590  0.38026594    -0.20100
F605        F  0.42894310  0.83562403  0.35424346    -0.19800
F606        F  0.26811637  0.66668349  0.36171503    -0.19900
F607        F  0.25548087  0.70471061  0.32491698    -0.20200
F608        F  0.23687956  0.73059725  0.36397997    -0.22900
C609        C  0.98079626  0.00906272  0.98332097    -0.05700
C610        C  0.02161617  0.99163958  0.97784014     0.00200
C611        C  0.03044150  0.94912995  0.98498177    -0.08300
C612        C  0.99751033  0.92523529  0.99667061    -0.05700
C613        C  0.95628973  0.94215775  0.00134167     0.00200
C614        C  0.94780592  0.98499799  0.99505029    -0.08300
C615        C  0.90412466  0.00481217  0.99997622     0.62100
H616        H  0.97441355  0.04164996  0.97763981     0.12800
H617        H  0.00386827  0.89258759  0.00226293     0.12800
C618        C  0.07425371  0.92901629  0.98073358     0.62400
F619        F  0.90129779  0.04533996  0.98945603    -0.22800
F620        F  0.89684079  0.00771954  0.02658563    -0.20100
F621        F  0.87237197  0.98007997  0.98875656    -0.19800
F622        F  0.10598975  0.95542973  0.99042244    -0.19900
F623        F  0.08112747  0.92231907  0.95435585    -0.20200
F624        F  0.07768395  0.89011642  0.99334543    -0.22900
C625        C  0.93960182  0.03557217  0.84765952    -0.05700
C626        C  0.91028065  0.06872410  0.85130917     0.00200
C627        C  0.91296486  0.09416217  0.87401025    -0.08300
C628        C  0.94697230  0.08746983  0.89143207    -0.05700
C629        C  0.97902536  0.05703361  0.88667118     0.00200
C630        C  0.97366559  0.02844987  0.86526070    -0.08300
C631        C  0.00337994  0.99091429  0.86044253     0.62100
H632        H  0.93655971  0.01632274  0.83024368     0.12800
H633        H  0.95022301  0.10825494  0.90812582     0.12800
C634        C  0.88283531  0.13125650  0.87850124     0.62400
F635        F  0.98800139  0.96453062  0.84094790    -0.22800
F636        F  0.00681254  0.96675460  0.88299136    -0.20100
F637        F  0.04356806  0.00510186  0.85279483    -0.19800
F638        F  0.84062574  0.11761672  0.87768191    -0.19900
F639        F  0.88998390  0.16136299  0.85929938    -0.20200
F640        F  0.88940830  0.15046177  0.90248253    -0.22900
C641        C  0.97697159  0.51104070  0.98891351    -0.05700
C642        C  0.01846553  0.49460335  0.99303918     0.00200
C643        C  0.02920952  0.45427489  0.98278527    -0.08300
C644        C  0.99724000  0.43102203  0.96975256    -0.05700
C645        C  0.95526841  0.44677647  0.96649851     0.00200
C646        C  0.94490136  0.48769899  0.97596673    -0.08300
C647        C  0.90007099  0.50613186  0.97325470     0.62100
H648        H  0.96947544  0.54224879  0.99644451     0.12800
H649        H  0.00498692  0.40004523  0.96183057     0.12800
C650        C  0.07429884  0.43621832  0.98488716     0.62400
F651        F  0.89545675  0.54359192  0.98714006    -0.22800
F652        F  0.87001205  0.47739611  0.98267961    -0.20100
F653        F  0.89172394  0.51485794  0.94726306    -0.19800
F654        F  0.08241933  0.42422380  0.01041280    -0.19900
F655        F  0.10405680  0.46649305  0.97707129    -0.20200
F656        F  0.07968737  0.40080825  0.96919122    -0.22900
C657        C  0.80565923  0.22023574  0.85830876    -0.05700
C658        C  0.82785599  0.22063879  0.83427012     0.00200
C659        C  0.84925245  0.25858639  0.82626146    -0.08300
C660        C  0.85228675  0.29241891  0.84412346    -0.05700
C661        C  0.83459802  0.28944572  0.86925498     0.00200
C662        C  0.80872693  0.25414649  0.87600430    -0.08300
C663        C  0.78521537  0.25202745  0.90202148     0.62100
H664        H  0.78796882  0.19198320  0.86401770     0.12800
H665        H  0.87133605  0.32022264  0.83926864     0.12800
C666        C  0.86959596  0.26360710  0.79939318     0.62400
F667        F  0.75491707  0.21972309  0.90240553    -0.22800
F668        F  0.76411584  0.29002932  0.90652880    -0.20100
F669        F  0.81409304  0.24471188  0.92198555    -0.19800
F670        F  0.84088140  0.25096612  0.78032511    -0.19900
F671        F  0.90651023  0.23934997  0.79781462    -0.20200
F672        F  0.88078258  0.30549259  0.79428733    -0.22900
C673        C  0.02993220  0.39125792  0.83575043    -0.05700
C674        C  0.06636547  0.37020838  0.84520638     0.00200
C675        C  0.06736072  0.35653236  0.87156772    -0.08300
C676        C  0.02960410  0.35998663  0.88665534    -0.05700
C677        C  0.99154747  0.37731364  0.87635502     0.00200
C678        C  0.99246261  0.39566686  0.85088668    -0.08300
C679        C  0.95395796  0.41808389  0.83894895     0.62100
H680        H  0.03037636  0.40214436  0.81564756     0.12800
H681        H  0.02917076  0.34785340  0.90647827     0.12800
C682        C  0.10719975  0.33647497  0.88331496     0.62400
F683        F  0.96209767  0.43188749  0.81367216    -0.22800
F684        F  0.94363028  0.45347845  0.85366261    -0.20100
F685        F  0.91924851  0.39062464  0.83809844    -0.19800
F686        F  0.14142899  0.36438238  0.88108391    -0.19900
F687        F  0.11684944  0.29915296  0.87038284    -0.20200
F688        F  0.10169928  0.32699202  0.90956699    -0.22900
C689        C  0.10155240  0.19062390  0.83673401    -0.05700
C690        C  0.14074308  0.21270832  0.83654729     0.00200
C691        C  0.17452626  0.19848081  0.85324563    -0.08300
C692        C  0.16598706  0.16529128  0.87115737    -0.05700
C693        C  0.12572050  0.14567507  0.87234397     0.00200
C694        C  0.09344658  0.15738618  0.85433902    -0.08300
C695        C  0.05000733  0.13562376  0.85423369     0.62100
H696        H  0.07622655  0.20082721  0.82372165     0.12800
H697        H  0.19017372  0.15543757  0.88507825     0.12800
C698        C  0.21938630  0.21755672  0.85241907     0.62400
F699        F  0.02453212  0.14905639  0.83368123    -0.22800
F700        F  0.02860684  0.14453596  0.87724905    -0.20100
F701        F  0.05570929  0.09225814  0.85183372    -0.19800
F702        F  0.21877881  0.25842615  0.86232820    -0.19900
F703        F  0.23434747  0.21822673  0.82694352    -0.20200
F704        F  0.24816872  0.19405627  0.86712501    -0.22900
C705        C  0.51313007  0.95106628  0.50941280    -0.05700
C706        C  0.52314528  0.98993752  0.49716704     0.00200
C707        C  0.49916669  0.00271709  0.47487255    -0.08300
C708        C  0.46584092  0.97627760  0.46609569    -0.05700
C709        C  0.45597762  0.93723224  0.47816333     0.00200
C710        C  0.48008051  0.92431809  0.50040302    -0.08300
C711        C  0.47145375  0.88281841  0.51489615     0.62100
H712        H  0.53123007  0.94184234  0.52653166     0.12800
H713        H  0.44780738  0.98567736  0.44899405     0.12800
C714        C  0.50861959  0.04349988  0.45978059     0.62400
F715        F  0.49300333  0.88095650  0.53850911    -0.22800
F716        F  0.48509960  0.84879723  0.49995443    -0.20100
F717        F  0.42804149  0.87888094  0.52020134    -0.19800
F718        F  0.55205875  0.04631054  0.45437662    -0.19900
F719        F  0.49574116  0.07837008  0.47421627    -0.20200
F720        F  0.48712560  0.04493414  0.43613860    -0.22900
C721        C  0.22884064  0.19976394  0.70785908    -0.05700
C722        C  0.26075239  0.17768160  0.72158465     0.00200
C723        C  0.27041951  0.18949938  0.74762963    -0.08300
C724        C  0.24995137  0.22510428  0.75832430    -0.05700
C725        C  0.21773341  0.24707489  0.74480131     0.00200
C726        C  0.20671598  0.23419516  0.71906883    -0.08300
C727        C  0.17283429  0.25719256  0.70307222     0.62100
H728        H  0.22235062  0.19070693  0.68783472     0.12800
H729        H  0.25765903  0.23439574  0.77815347     0.12800
C730        C  0.30126000  0.16524585  0.76513346     0.62400
F731        F  0.17474563  0.24606534  0.67692344    -0.22800
F732        F  0.17890114  0.30072881  0.70467155    -0.20100
F733        F  0.13234519  0.24680408  0.71229460    -0.19800
F734        F  0.33875523  0.18845212  0.76783292    -0.19900
F735        F  0.31103101  0.12529070  0.75562277    -0.20200
F736        F  0.28291348  0.15955484  0.78958387    -0.22900
C737        C  0.50200093  0.05443492  0.61379230    -0.05700
C738        C  0.49327830  0.06456613  0.58765774     0.00200
C739        C  0.45041794  0.07208496  0.57971806    -0.08300
C740        C  0.41784475  0.07123482  0.59882984    -0.05700
C741        C  0.42736200  0.06531688  0.62539360     0.00200
C742        C  0.46983181  0.05460327  0.63292793    -0.08300
C743        C  0.48298228  0.04686825  0.66113475     0.62100
H744        H  0.53494140  0.04848559  0.61953272     0.12800
H745        H  0.38519889  0.07868115  0.59339885     0.12800
C746        C  0.43912508  0.08210237  0.55151165     0.62400
F747        F  0.51874782  0.02082208  0.66242048    -0.22800
F748        F  0.45055653  0.02712529  0.67513317    -0.20100
F749        F  0.49290093  0.08527898  0.67277389    -0.19800
F750        F  0.39513869  0.08321616  0.54768699    -0.19900
F751        F  0.45604258  0.05136664  0.53516974    -0.20200
F752        F  0.45559218  0.12150196  0.54467413    -0.22900
C753        C  0.48391999  0.42713443  0.47349050    -0.05700
C754        C  0.46425702  0.44436217  0.49586654     0.00200
C755        C  0.48009973  0.48335238  0.50609942    -0.08300
C756        C  0.51502449  0.50316034  0.49348308    -0.05700
C757        C  0.53457479  0.48601596  0.47105924     0.00200
C758        C  0.51872134  0.44709541  0.46080639    -0.08300
C759        C  0.53726609  0.42682427  0.43630271     0.62100
H760        H  0.47179966  0.39729954  0.46598239     0.12800
H761        H  0.52724339  0.53294902  0.50100857     0.12800
C762        C  0.46133068  0.50405591  0.53043354     0.62400
F763        F  0.51649032  0.38928474  0.42992815    -0.22800
F764        F  0.58016126  0.41740066  0.44013437    -0.20100
F765        F  0.53301568  0.45433045  0.41533030    -0.19800
F766        F  0.46555961  0.47701168  0.55163589    -0.19900
F767        F  0.41843074  0.51331998  0.52644169    -0.20200
F768        F  0.48192113  0.54179336  0.53658879    -0.22900
C769        C  0.32776801  0.24842740  0.58580634    -0.05700
C770        C  0.34657706  0.28615412  0.59463623     0.00200
C771        C  0.35863106  0.28989540  0.62121474    -0.08300
C772        C  0.35410374  0.25417033  0.63762492    -0.05700
C773        C  0.33794221  0.21534135  0.62832504     0.00200
C774        C  0.32289815  0.21277365  0.60209848    -0.08300
C775        C  0.30365143  0.17244255  0.59058705     0.62100
H776        H  0.31856778  0.24662653  0.56545964     0.12800
H777        H  0.36442357  0.25593008  0.65777833     0.12800
C778        C  0.37868548  0.33027748  0.63186500     0.62400
F779        F  0.29453442  0.17680007  0.56423450    -0.22800
F780        F  0.26559786  0.16261312  0.60327693    -0.20100
F781        F  0.33224524  0.13916297  0.59317877    -0.19800
F782        F  0.35075889  0.36399970  0.62858660    -0.19900
F783        F  0.41662216  0.33862997  0.61875999    -0.20200
F784        F  0.38786551  0.32695071  0.65825893    -0.22900
C785        C  0.74023834  0.21681842  0.70752138    -0.05700
C786        C  0.71430419  0.24450807  0.72217989     0.00200
C787        C  0.70873835  0.23743613  0.74933019    -0.08300
C788        C  0.73058288  0.20331173  0.76103985    -0.05700
C789        C  0.75701390  0.17603777  0.74645824     0.00200
C790        C  0.76140540  0.18216683  0.71918936    -0.08300
C791        C  0.78671143  0.15124285  0.70241229     0.62100
H792        H  0.74287147  0.22191652  0.68661340     0.12800
H793        H  0.72799763  0.19824231  0.78195290     0.12800
C794        C  0.68071901  0.26622575  0.76598638     0.62400
F795        F  0.78049497  0.15869699  0.67600828    -0.22800
F796        F  0.77360329  0.11003024  0.70780526    -0.20100
F797        F  0.83010625  0.15506643  0.70749206    -0.19800
F798        F  0.63795762  0.25985137  0.75991694    -0.19900
F799        F  0.69144956  0.30835671  0.76146895    -0.20200
F800        F  0.68579354  0.25812556  0.79241524    -0.22900
C801        C  0.57301409  0.35286555  0.59741862    -0.05700
C802        C  0.56731774  0.37104240  0.62216373     0.00200
C803        C  0.52973937  0.39450546  0.62761120    -0.08300
C804        C  0.49693121  0.39533811  0.60886663    -0.05700
C805        C  0.50025573  0.37286532  0.58516320     0.00200
C806        C  0.54004636  0.35328619  0.57862664    -0.08300
C807        C  0.54792509  0.33216127  0.55237439     0.62100
H808        H  0.60227223  0.33523046  0.59368797     0.12800
H809        H  0.46729554  0.41173341  0.61341008     0.12800
C810        C  0.52420981  0.41818943  0.65325227     0.62400
F811        F  0.59078626  0.32186873  0.54885967    -0.22800
F812        F  0.53635597  0.35947417  0.53234006    -0.20100
F813        F  0.52428922  0.29497069  0.55075459    -0.19800
F814        F  0.56023104  0.44282667  0.65793979    -0.19900
F815        F  0.51862197  0.38974712  0.67364024    -0.20200
F816        F  0.48887394  0.44483967  0.65273086    -0.22900
C817        C  0.62203065  0.14418001  0.61688706    -0.05700
C818        C  0.64287761  0.14906211  0.59276174     0.00200
C819        C  0.66722402  0.18608118  0.58762682    -0.08300
C820        C  0.66706219  0.21880248  0.60628348    -0.05700
C821        C  0.64328101  0.21566242  0.62974519     0.00200
C822        C  0.62158831  0.17686994  0.63561027    -0.08300
C823        C  0.59740668  0.16967838  0.66109203     0.62100
H824        H  0.60347635  0.11542742  0.62021260     0.12800
H825        H  0.68460976  0.24784123  0.60213871     0.12800
C826        C  0.69393079  0.19045543  0.56282673     0.62400
F827        F  0.62398821  0.17834006  0.68204083    -0.22800
F828        F  0.56168486  0.19571942  0.66199652    -0.20100
F829        F  0.58336093  0.12803274  0.66365395    -0.19800
F830        F  0.66771286  0.19165133  0.54110154    -0.19900
F831        F  0.72146556  0.15612966  0.56081187    -0.20200
F832        F  0.71848084  0.22723473  0.56283300    -0.22900
C833        C  0.74125647  0.05924569  0.45496644    -0.05700
C834        C  0.78023792  0.06745237  0.46783512     0.00200
C835        C  0.77986884  0.07798581  0.49476062    -0.08300
C836        C  0.74020874  0.07891463  0.50799910    -0.05700
C837        C  0.70144383  0.07073822  0.49506654     0.00200
C838        C  0.70162857  0.06102300  0.46814346    -0.08300
C839        C  0.66028054  0.05139186  0.45369509     0.62100
H840        H  0.74209587  0.05154464  0.43436203     0.12800
H841        H  0.73905008  0.08601004  0.52867772     0.12800
C842        C  0.82097726  0.08690034  0.50969068     0.62400
F843        F  0.66778969  0.03997076  0.42796858    -0.22800
F844        F  0.63435836  0.08704896  0.45370415    -0.20100
F845        F  0.63893163  0.01812536  0.46588594    -0.19800
F846        F  0.83960001  0.12404833  0.50051484    -0.19900
F847        F  0.84937249  0.05348725  0.50652735    -0.20200
F848        F  0.81343607  0.09179376  0.53619775    -0.22900
C849        C  0.18035409  0.98686054  0.23614757    -0.05700
C850        C  0.14095647  0.00101057  0.24612461     0.00200
C851        C  0.10362722  0.97594858  0.24208497    -0.08300
C852        C  0.10708453  0.93794253  0.22760439    -0.05700
C853        C  0.14648899  0.92395550  0.21723383     0.00200
C854        C  0.18400900  0.94885439  0.22179487    -0.08300
C855        C  0.22820320  0.93500328  0.21256711     0.62100
H856        H  0.20857869  0.00620438  0.23969074     0.12800
H857        H  0.07871985  0.91874550  0.22422975     0.12800
C858        C  0.06085710  0.98794861  0.25423481     0.62400
F859        F  0.26051352  0.96059887  0.22245094    -0.22800
F860        F  0.23050893  0.93698978  0.18559675    -0.20100
F861        F  0.23592045  0.89392466  0.22091012    -0.19800
F862        F  0.04624443  0.02564715  0.24353537    -0.19900
F863        F  0.06593988  0.99266839  0.28088348    -0.20200
F864        F  0.02976724  0.95713205  0.25017365    -0.22900
C865        C  0.02867793  0.06481311  0.38575541    -0.05700
C866        C  0.98954132  0.04927256  0.37600658     0.00200
C867        C  0.98776511  0.03345542  0.35003123    -0.08300
C868        C  0.02380126  0.03913285  0.33389017    -0.05700
C869        C  0.06175312  0.05770468  0.34308243     0.00200
C870        C  0.06526092  0.06875990  0.36976918    -0.08300
C871        C  0.10638589  0.08703407  0.38095876     0.62100
H872        H  0.03000900  0.07512524  0.40590265     0.12800
H873        H  0.02191731  0.03099292  0.31344651     0.12800
C874        C  0.94808425  0.01208098  0.33876712     0.62400
F875        F  0.10274203  0.09533241  0.40743799    -0.22800
F876        F  0.11640106  0.12473765  0.36840523    -0.20100
F877        F  0.13953720  0.05834987  0.37754914    -0.19800
F878        F  0.91343711  0.03930271  0.34001776    -0.19900
F879        F  0.93903817  0.97535801  0.35270611    -0.20200
F880        F  0.95370485  0.00073948  0.31284016    -0.22900
C881        C  0.22720957  0.32615173  0.47328305    -0.05700
C882        C  0.20580359  0.36472308  0.46875108     0.00200
C883        C  0.22266496  0.40262394  0.47971154    -0.08300
C884        C  0.26134874  0.40072239  0.49394712    -0.05700
C885        C  0.28396694  0.36245661  0.49759621     0.00200
C886        C  0.26618272  0.32421032  0.48735615    -0.08300
C887        C  0.28737012  0.28127080  0.49163592     0.62100
H888        H  0.21350329  0.29745291  0.46515942     0.12800
H889        H  0.27467755  0.42963086  0.50205512     0.12800
C890        C  0.19934223  0.44484213  0.47709104     0.62400
F891        F  0.26218750  0.24810124  0.48259955    -0.22800
F892        F  0.29417752  0.27473222  0.51804357    -0.20100
F893        F  0.32614633  0.27986160  0.47841594    -0.19800
F894        F  0.15681554  0.44003291  0.48450533    -0.19900
F895        F  0.20130271  0.45888282  0.45148402    -0.20200
F896        F  0.21734663  0.47595508  0.49274038    -0.22900
C897        C  0.12930927  0.28685844  0.34596363    -0.05700
C898        C  0.14794488  0.28217111  0.37068451     0.00200
C899        C  0.16989476  0.24413135  0.37676807    -0.08300
C900        C  0.16839501  0.21036171  0.35890692    -0.05700
C901        C  0.14633335  0.21347105  0.33496878     0.00200
C902        C  0.12793017  0.25325008  0.32784210    -0.08300
C903        C  0.10639129  0.26060385  0.30159773     0.62100
H904        H  0.11295876  0.31637462  0.34162809     0.12800
H905        H  0.18411897  0.18078510  0.36414339     0.12800
C906        C  0.19545204  0.23764628  0.40165425     0.62400
F907        F  0.09558524  0.30290971  0.29788410    -0.22800
F908        F  0.06899256  0.23692508  0.30015236    -0.20100
F909        F  0.13396968  0.24910381  0.28157819    -0.19800
F910        F  0.17585060  0.20668407  0.41683279    -0.19900
F911        F  0.19932210  0.27440177  0.41621743    -0.20200
F912        F  0.23648443  0.22428700  0.39527689    -0.22900
C913        C  0.83474376  0.45892186  0.26552684    -0.05700
C914        C  0.83895807  0.42096983  0.25125235     0.00200
C915        C  0.84314147  0.42284611  0.22366895    -0.08300
C916        C  0.84096508  0.46276784  0.21128601    -0.05700
C917        C  0.83669760  0.50058018  0.22554046     0.00200
C918        C  0.83450040  0.49900656  0.25314969    -0.08300
C919        C  0.83097205  0.53922660  0.26936843     0.62100
H920        H  0.83218405  0.45688868  0.28661156     0.12800
H921        H  0.84333806  0.46493456  0.19019550     0.12800
C922        C  0.84921670  0.38311134  0.20724916     0.62400
F923        F  0.82650660  0.53028914  0.29576287    -0.22800
F924        F  0.79558536  0.56247328  0.26152044    -0.20100
F925        F  0.86761935  0.56363164  0.26615817    -0.19800
F926        F  0.81675631  0.35419846  0.21255201    -0.19900
F927        F  0.88853942  0.36490979  0.21284240    -0.20200
F928        F  0.84843230  0.39207409  0.18073588    -0.22900
C929        C  0.95622795  0.34977019  0.38701308    -0.05700
C930        C  0.99458272  0.36697871  0.37685190     0.00200
C931        C  0.99481098  0.38350283  0.35087248    -0.08300
C932        C  0.95806298  0.37784905  0.33537650    -0.05700
C933        C  0.92098560  0.35791295  0.34501283     0.00200
C934        C  0.91907811  0.34537745  0.37160141    -0.08300
C935        C  0.87895945  0.32532656  0.38328387     0.62100
H936        H  0.95587474  0.33874454  0.40707110     0.12800
H937        H  0.95833350  0.38777827  0.31509451     0.12800
C938        C  0.03353423  0.40594770  0.33891590     0.62400
F939        F  0.88390245  0.31593030  0.40955942    -0.22800
F940        F  0.86961368  0.28792455  0.37035978    -0.20100
F941        F  0.84476758  0.35307945  0.38093597    -0.19800
F942        F  0.06896092  0.37968897  0.33973672    -0.19900
F943        F  0.04195593  0.44295824  0.35253063    -0.20200
F944        F  0.02688406  0.41699124  0.31301885    -0.22900
C945        C  0.80953253  0.20579393  0.35912416    -0.05700
C946        C  0.83203378  0.20422835  0.33522311     0.00200
C947        C  0.85126719  0.16534426  0.32726958    -0.08300
C948        C  0.85129535  0.13116656  0.34498015    -0.05700
C949        C  0.83369961  0.13506115  0.37001915     0.00200
C950        C  0.81031569  0.17177115  0.37683102    -0.08300
C951        C  0.78719489  0.17523034  0.40294017     0.62100
H952        H  0.79339113  0.23488446  0.36469727     0.12800
H953        H  0.86852701  0.10240946  0.34025263     0.12800
C954        C  0.87280301  0.15971531  0.30078961     0.62400
F955        F  0.76013453  0.21011406  0.40365948    -0.22800
F956        F  0.81657867  0.17934501  0.42296513    -0.20100
F957        F  0.76261461  0.13912403  0.40716878    -0.19800
F958        F  0.91031000  0.18332891  0.29972855    -0.19900
F959        F  0.84531089  0.17264468  0.28112026    -0.20200
F960        F  0.88343635  0.11764566  0.29613867    -0.22900
C961        C  0.23625252  0.07317817  0.95707358    -0.05700
C962        C  0.19760553  0.07675310  0.97120163     0.00200
C963        C  0.19919860  0.08004720  0.99883851    -0.08300
C964        C  0.23946497  0.07733207  0.01137648    -0.05700
C965        C  0.27803270  0.07344361  0.99721189     0.00200
C966        C  0.27659718  0.07248189  0.96955624    -0.08300
C967        C  0.31738227  0.06981383  0.95333004     0.62100
H968        H  0.23452903  0.07113966  0.93597398     0.12800
H969        H  0.24125974  0.07862174  0.03249974     0.12800
C970        C  0.15867977  0.08553053  0.01508042     0.62400
F971        F  0.30869313  0.06608420  0.92691009    -0.22800
F972        F  0.34114664  0.03477516  0.96091453    -0.20100
F973        F  0.34154844  0.10628755  0.95685029    -0.19800
F974        F  0.13010980  0.05289054  0.00990556    -0.19900
F975        F  0.13974444  0.12408764  0.00908292    -0.20200
F976        F  0.16723242  0.08515645  0.04162658    -0.22900
C977        C  0.62851384  0.96314151  0.20914389    -0.05700
C978        C  0.63056236  0.00246471  0.22207057     0.00200
C979        C  0.63145834  0.00325747  0.24975747    -0.08300
C980        C  0.63101546  0.96431271  0.26355906    -0.05700
C981        C  0.62887672  0.92499792  0.25061685     0.00200
C982        C  0.62728816  0.92425069  0.22293818    -0.08300
C983        C  0.62599194  0.88258127  0.20800360     0.62100
H984        H  0.62791659  0.96319622  0.18797426     0.12800
H985        H  0.63255178  0.96419310  0.28470859     0.12800
C986        C  0.63454100  0.04488584  0.26460242     0.62400
F987        F  0.62799734  0.88896550  0.18123682    -0.22800
F988        F  0.58816731  0.86123105  0.21356551    -0.20100
F989        F  0.66050155  0.85746228  0.21510676    -0.19800
F990        F  0.59781862  0.06861707  0.26053830    -0.19900
F991        F  0.66993951  0.06773579  0.25602557    -0.20200
F992        F  0.63874784  0.03833865  0.29124733    -0.22900
C993        C  0.70008790  0.19070989  0.24517451    -0.05700
C994        C  0.71506938  0.17716089  0.22065039     0.00200
C995        C  0.75172524  0.19723270  0.20951727    -0.08300
C996        C  0.77187655  0.23011567  0.22347795    -0.05700
C997        C  0.75698341  0.24373986  0.24802681     0.00200
C998        C  0.72042353  0.22342990  0.25925185    -0.08300
C999        C  0.70331132  0.23491063  0.28618262     0.62100
H1000       H  0.67184545  0.17531234  0.25324506     0.12800
H1001       H  0.80001276  0.24549927  0.21527430     0.12800
C1002       C  0.76892050  0.18541293  0.18267375     0.62400
F1003       F  0.66846664  0.20998244  0.29337761    -0.22800
F1004       F  0.69008668  0.27687469  0.28635375    -0.20100
F1005       F  0.73498939  0.22891408  0.30468310    -0.19800
F1006       F  0.73720825  0.19111274  0.16417463    -0.19900
F1007       F  0.78221138  0.14346392  0.18270042    -0.20200
F1008       F  0.80372382  0.21029416  0.17536943    -0.22900
C1009       C  0.56574915  0.06716349  0.09713504    -0.05700
C1010       C  0.55764647  0.05539122  0.12316173     0.00200
C1011       C  0.51770375  0.03693940  0.12990664    -0.08300
C1012       C  0.48489970  0.03668171  0.11122690    -0.05700
C1013       C  0.49105108  0.05380089  0.08605455     0.00200
C1014       C  0.53302442  0.06628801  0.07819468    -0.08300
C1015       C  0.54355319  0.07846799  0.05014979     0.62100
H1016       H  0.59698103  0.08011718  0.09216581     0.12800
H1017       H  0.45338504  0.02511912  0.11685468     0.12800
C1018       C  0.50844528  0.01984018  0.15711418     0.62400
F1019       F  0.58745754  0.08120493  0.04603185    -0.22800
F1020       F  0.52582372  0.11759346  0.04422697    -0.20100
F1021       F  0.52751390  0.04799090  0.03330619    -0.19800
F1022       F  0.49473705  0.05261642  0.17303058    -0.19900
F1023       F  0.54483422  0.00150820  0.16774206    -0.20200
F1024       F  0.47671699  0.98892936  0.15643940    -0.22900
C1025       C  0.38020473  0.44033268  0.22669638    -0.05700
C1026       C  0.33992428  0.42576411  0.21808494     0.00200
C1027       C  0.30244032  0.44856386  0.22562514    -0.08300
C1028       C  0.30696167  0.48560270  0.24082666    -0.05700
C1029       C  0.34724527  0.50086176  0.24871277     0.00200
C1030       C  0.38462023  0.47753776  0.24188624    -0.08300
C1031       C  0.42882730  0.49091687  0.25127091     0.62100
H1032       H  0.40850559  0.42258856  0.22104326     0.12800
H1033       H  0.27874500  0.50353996  0.24642478     0.12800
C1034       C  0.25756050  0.43365645  0.21838024     0.62400
F1035       F  0.45983557  0.46093967  0.24527831    -0.22800
F1036       F  0.42823271  0.49591876  0.27811984    -0.20100
F1037       F  0.44061372  0.52886753  0.23952762    -0.19800
F1038       F  0.25235054  0.39138245  0.22531077    -0.19900
F1039       F  0.25128346  0.43846126  0.19179308    -0.20200
F1040       F  0.22600787  0.45676707  0.23110066    -0.22900
C1041       C  0.28396342  0.21705072  0.23354645    -0.05700
C1042       C  0.26145034  0.24856881  0.21947996     0.00200
C1043       C  0.21602334  0.24570405  0.21793925    -0.08300
C1044       C  0.19535933  0.21138997  0.23038273    -0.05700
C1045       C  0.21786404  0.17983277  0.24436238     0.00200
C1046       C  0.26327852  0.18256509  0.24584447    -0.08300
C1047       C  0.29037309  0.14947542  0.25994325     0.62100
H1048       H  0.31858832  0.21913184  0.23461525     0.12800
H1049       H  0.16072636  0.20937499  0.22942512     0.12800
C1050       C  0.18883975  0.27818998  0.20338635     0.62400
F1051       F  0.33393454  0.15583620  0.25593285    -0.22800
F1052       F  0.28039296  0.10925953  0.25083566    -0.20100
F1053       F  0.28285575  0.15150651  0.28657072    -0.19800
F1054       F  0.19737857  0.27609545  0.17686960    -0.19900
F1055       F  0.19768983  0.31861267  0.21253647    -0.20200
F1056       F  0.14526228  0.27108091  0.20678768    -0.22900
C1057       C  0.34985869  0.17931512  0.13573341    -0.05700
C1058       C  0.32878090  0.21607136  0.12689681     0.00200
C1059       C  0.30826380  0.21539851  0.10202018    -0.08300
C1060       C  0.31445195  0.17979521  0.08581820    -0.05700
C1061       C  0.33852555  0.14466414  0.09398742     0.00200
C1062       C  0.35482230  0.14338226  0.11976922    -0.08300
C1063       C  0.38038264  0.10573134  0.12967303     0.62100
H1064       H  0.36393351  0.17949565  0.15505277     0.12800
H1065       H  0.30189301  0.17966723  0.06610112     0.12800
C1066       C  0.28106070  0.25206674  0.09198200     0.62400
F1067       F  0.39304398  0.11073861  0.15540089    -0.22800
F1068       F  0.41682724  0.10141125  0.11457809    -0.20100
F1069       F  0.35588004  0.06908810  0.12817282    -0.19800
F1070       F  0.30550379  0.28876651  0.09048613    -0.19900
F1071       F  0.24649272  0.25834780  0.10858612    -0.20200
F1072       F  0.26478223  0.24416134  0.06730975    -0.22900
C1073       C  0.73843681  0.35431380  0.00751033    -0.05700
C1074       C  0.69901851  0.35816700  0.99446487     0.00200
C1075       C  0.69888478  0.36537344  0.96712318    -0.08300
C1076       C  0.73847310  0.36788066  0.95368254    -0.05700
C1077       C  0.77799954  0.36297342  0.96658974     0.00200
C1078       C  0.77806882  0.35617206  0.99404783    -0.08300
C1079       C  0.81966292  0.35200458  0.00925793     0.62100
H1080       H  0.73784407  0.34943586  0.02847687     0.12800
H1081       H  0.73883791  0.37329982  0.93276538     0.12800
C1082       C  0.65714927  0.37176902  0.95238635     0.62400
F1083       F  0.81253158  0.35121940  0.03598287    -0.22800
F1084       F  0.84634486  0.38615341  0.00373659    -0.20100
F1085       F  0.84007569  0.31458056  0.00250101    -0.19800
F1086       F  0.63420675  0.40480505  0.96347792    -0.19900
F1087       F  0.63288072  0.33493055  0.95350117    -0.20200
F1088       F  0.66421179  0.38162706  0.92632552    -0.22900
C1089       C  0.62425320  0.24557368  0.13536485    -0.05700
C1090       C  0.64462109  0.20806692  0.12711287     0.00200
C1091       C  0.66492944  0.20744366  0.10210282    -0.08300
C1092       C  0.65941801  0.24259573  0.08532272    -0.05700
C1093       C  0.63633680  0.27869164  0.09298435     0.00200
C1094       C  0.62020254  0.28121242  0.11887213    -0.08300
C1095       C  0.59644004  0.32015402  0.12861444     0.62100
H1096       H  0.61037869  0.24639815  0.15478831     0.12800
H1097       H  0.67198422  0.24172583  0.06556404     0.12800
C1098       C  0.69135369  0.16991665  0.09255124     0.62400
F1099       F  0.58352452  0.31590540  0.15442381    -0.22800
F1100       F  0.56024007  0.32639884  0.11366357    -0.20100
F1101       F  0.62280722  0.35550127  0.12686482    -0.19800
F1102       F  0.66626531  0.13358409  0.09201514    -0.19900
F1103       F  0.72605156  0.16376849  0.10894251    -0.20200
F1104       F  0.70742102  0.17651181  0.06758809    -0.22900
C1105       C  0.40770242  0.34952238  0.09272284    -0.05700
C1106       C  0.41327216  0.36790080  0.11745052     0.00200
C1107       C  0.45215874  0.38878952  0.12335586    -0.08300
C1108       C  0.48615576  0.38627924  0.10550015    -0.05700
C1109       C  0.48238176  0.36437204  0.08166139     0.00200
C1110       C  0.44173960  0.34741029  0.07449354    -0.08300
C1111       C  0.43408904  0.32681200  0.04809836     0.62100
H1112       H  0.37758490  0.33369981  0.08861903     0.12800
H1113       H  0.51665363  0.40043922  0.11082143     0.12800
C1114       C  0.45989227  0.41127933  0.14912104     0.62400
F1115       F  0.39102760  0.31786732  0.04413873    -0.22800
F1116       F  0.45648826  0.28896524  0.04649787    -0.20100
F1117       F  0.44744375  0.35399370  0.02834068    -0.19800
F1118       F  0.48255138  0.38465120  0.16561347    -0.19900
F1119       F  0.42183908  0.42296071  0.16115116    -0.20200
F1120       F  0.48362108  0.44797840  0.14496292    -0.22900
C1121       C  0.74301886  0.85745702  0.95536539    -0.05700
C1122       C  0.70345232  0.85889149  0.96860907     0.00200
C1123       C  0.70285835  0.85841241  0.99628579    -0.08300
C1124       C  0.74215487  0.85548459  0.00977564    -0.05700
C1125       C  0.78181159  0.85338523  0.99656962     0.00200
C1126       C  0.78239577  0.85494128  0.96885675    -0.08300
C1127       C  0.82430151  0.85619586  0.95360884     0.62100
H1128       H  0.74277185  0.85851391  0.93420867     0.12800
H1129       H  0.74224112  0.85506713  0.03094025     0.12800
C1130       C  0.66113049  0.86282256  0.01151050     0.62400
F1131       F  0.81754925  0.86178464  0.92708133    -0.22800
F1132       F  0.84627052  0.81843183  0.95702588    -0.20100
F1133       F  0.84936247  0.88967195  0.96228019    -0.19800
F1134       F  0.63598604  0.82703636  0.00792724    -0.19900
F1135       F  0.63898695  0.89833055  0.00293718    -0.20200
F1136       F  0.66828494  0.86741111  0.03805300    -0.22900
C1137       C  0.51195232  0.93119009  0.99406143    -0.05700
C1138       C  0.52610044  0.94539982  0.96943723     0.00200
C1139       C  0.50507401  0.98074290  0.95765477    -0.08300
C1140       C  0.47114146  0.00049207  0.97121956    -0.05700
C1141       C  0.45698456  0.98627428  0.99582940     0.00200
C1142       C  0.47800376  0.95098387  0.00762097    -0.08300
C1143       C  0.46612735  0.93483953  0.03472471     0.62100
H1144       H  0.52786340  0.90394019  0.00264038     0.12800
H1145       H  0.45517176  0.02769624  0.96262676     0.12800
C1146       C  0.51666498  0.99689800  0.93049106     0.62400
F1147       F  0.49180142  0.90124320  0.04255396    -0.22800
F1148       F  0.42401580  0.92081022  0.03495869    -0.20100
F1149       F  0.47121132  0.96706184  0.05272567    -0.19800
F1150       F  0.51089785  0.96481550  0.91250210    -0.19900
F1151       F  0.55888999  0.01054479  0.92994923    -0.20200
F1152       F  0.49119947  0.03077166  0.92284821    -0.22900
C1153       C  0.34654985  0.92993556  0.72483449    -0.05700
C1154       C  0.34186007  0.93362499  0.75196494     0.00200
C1155       C  0.33884758  0.97470176  0.76344375    -0.08300
C1156       C  0.34160411  0.01069038  0.74709514    -0.05700
C1157       C  0.34440736  0.00687149  0.71989470     0.00200
C1158       C  0.34643906  0.96585578  0.70839771    -0.08300
C1159       C  0.34763537  0.95963593  0.67895737     0.62100
H1160       H  0.34831028  0.89834357  0.71649533     0.12800
H1161       H  0.33958866  0.04231266  0.75534267     0.12800
C1162       C  0.33233566  0.98099555  0.79266251     0.62400
F1163       F  0.35632889  0.91785142  0.67230899    -0.22800
F1164       F  0.37913670  0.98486109  0.66784905    -0.20100
F1165       F  0.30827669  0.97035573  0.66842295    -0.19800
F1166       F  0.36330007  0.95919096  0.80650737    -0.19900
F1167       F  0.29213204  0.96634791  0.79993999    -0.20200
F1168       F  0.33501988  0.02345645  0.79963949    -0.22900
C1169       C  0.41457104  0.87486199  0.87225419    -0.05700
C1170       C  0.42138467  0.88393992  0.84573635     0.00200
C1171       C  0.46228639  0.89839334  0.83729407    -0.08300
C1172       C  0.49646250  0.89677278  0.85487621    -0.05700
C1173       C  0.49106279  0.88129073  0.88040578     0.00200
C1174       C  0.44904284  0.87255922  0.88988076    -0.08300
C1175       C  0.44042605  0.85981661  0.91807511     0.62100
H1176       H  0.38273633  0.86540494  0.87854377     0.12800
H1177       H  0.52827075  0.90574455  0.84805256     0.12800
C1178       C  0.47212698  0.91420769  0.80984383     0.62400
F1179       F  0.39692468  0.85968110  0.92380154    -0.22800
F1180       F  0.46012227  0.88825629  0.93478648    -0.20100
F1181       F  0.45599039  0.81931618  0.92264548    -0.19800
F1182       F  0.43573595  0.91981654  0.79489292    -0.19900
F1183       F  0.49880503  0.88545809  0.79743356    -0.20200
F1184       F  0.49294607  0.95307935  0.81125020    -0.22900
C1185       C  0.23698643  0.57990607  0.95960316    -0.05700
C1186       C  0.27565287  0.57162385  0.97273466     0.00200
C1187       C  0.27463626  0.56365974  0.99999520    -0.08300
C1188       C  0.23468747  0.56339986  0.01311060    -0.05700
C1189       C  0.19591023  0.57197836  0.00009589     0.00200
C1190       C  0.19707379  0.58101897  0.97286793    -0.08300
C1191       C  0.15645389  0.59101255  0.95771760     0.62100
H1192       H  0.23845175  0.58607753  0.93877854     0.12800
H1193       H  0.23345597  0.55676356  0.03388472     0.12800
C1194       C  0.31549399  0.55432797  0.01502456     0.62400
F1195       F  0.16424062  0.59443362  0.93113120    -0.22800
F1196       F  0.13966260  0.62929976  0.96615743    -0.20100
F1197       F  0.12643386  0.55905826  0.96151554    -0.19800
F1198       F  0.34195271  0.58969778  0.01454297    -0.19900
F1199       F  0.33664190  0.52030175  0.00375944    -0.20200
F1200       F  0.30719150  0.54419658  0.04091291    -0.22900
C1201       C  0.50996029  0.47362983  0.00506685    -0.05700
C1202       C  0.51917505  0.43446478  0.99319433     0.00200
C1203       C  0.49409367  0.42125452  0.97144417    -0.08300
C1204       C  0.46136627  0.44829791  0.96235280    -0.05700
C1205       C  0.45256548  0.48770978  0.97407005     0.00200
C1206       C  0.47692046  0.50034461  0.99624420    -0.08300
C1207       C  0.46855589  0.54151506  0.01099698     0.62100
H1208       H  0.52858061  0.48310680  0.02190626     0.12800
H1209       H  0.44276168  0.43901095  0.94546668     0.12800
C1210       C  0.50146255  0.37921172  0.95748801     0.62400
F1211       F  0.48958349  0.54243307  0.03480160    -0.22800
F1212       F  0.42512479  0.54573623  0.01605301    -0.20100
F1213       F  0.48299568  0.57586135  0.99643893    -0.19800
F1214       F  0.48845763  0.34582901  0.97333522    -0.19900
F1215       F  0.54447568  0.37481791  0.95125815    -0.20200
F1216       F  0.47843371  0.37658816  0.93443420    -0.22900
C1217       C  0.32612773  0.69134268  0.88624408    -0.05700
C1218       C  0.34306679  0.65304961  0.87689794     0.00200
C1219       C  0.35605810  0.65007592  0.85036610    -0.08300
C1220       C  0.35345641  0.68663298  0.83446608    -0.05700
C1221       C  0.33843978  0.72561472  0.84420933     0.00200
C1222       C  0.32354098  0.72786845  0.87050700    -0.08300
C1223       C  0.30688149  0.76879230  0.88263666     0.62100
H1224       H  0.31635401  0.69274710  0.90656387     0.12800
H1225       H  0.36395448  0.68525368  0.81428782     0.12800
C1226       C  0.37463883  0.60939279  0.83916218     0.62400
F1227       F  0.29951078  0.76460078  0.90923213    -0.22800
F1228       F  0.26847034  0.78019786  0.87110589    -0.20100
F1229       F  0.33670513  0.80092661  0.87921353    -0.19800
F1230       F  0.34483921  0.57689008  0.84130425    -0.19900
F1231       F  0.41141795  0.59846105  0.85258957    -0.20200
F1232       F  0.38540211  0.61373062  0.81300217    -0.22900
C1233       C  0.60588013  0.44103120  0.73088069    -0.05700
C1234       C  0.64544625  0.42521192  0.72173182     0.00200
C1235       C  0.68374719  0.44756493  0.72829794    -0.08300
C1236       C  0.68070725  0.48491265  0.74343315    -0.05700
C1237       C  0.64111636  0.50131373  0.75188162     0.00200
C1238       C  0.60293918  0.47881804  0.74570745    -0.08300
C1239       C  0.55937144  0.49391057  0.75527121     0.62100
H1240       H  0.57687515  0.42387885  0.72584094     0.12800
H1241       H  0.70956933  0.50238187  0.74839295     0.12800
C1242       C  0.72792653  0.43223496  0.71979023     0.62400
F1243       F  0.52712876  0.46502040  0.74956872    -0.22800
F1244       F  0.54914783  0.53209862  0.74338028    -0.20100
F1245       F  0.56025437  0.49930796  0.78209593    -0.19800
F1246       F  0.73227379  0.43654485  0.69299998    -0.19900
F1247       F  0.73331206  0.39004640  0.72683411    -0.20200
F1248       F  0.76059617  0.45543485  0.73131378    -0.22900
C1249       C  0.54194330  0.53815040  0.85232629    -0.05700
C1250       C  0.56092651  0.57825546  0.84905927     0.00200
C1251       C  0.54667957  0.61274596  0.86458331    -0.08300
C1252       C  0.51268055  0.60643410  0.88212932    -0.05700
C1253       C  0.49181730  0.56709207  0.88459698     0.00200
C1254       C  0.50739639  0.53175697  0.86995063    -0.08300
C1255       C  0.48805956  0.48758109  0.87267826     0.62100
H1256       H  0.55333075  0.51229621  0.84023396     0.12800
H1257       H  0.50099832  0.63308923  0.89341280     0.12800
C1258       C  0.56727779  0.65635368  0.86267592     0.62400
F1259       F  0.51234343  0.45727501  0.85978283    -0.22800
F1260       F  0.44725489  0.48701849  0.86209768    -0.20100
F1261       F  0.48608164  0.47612936  0.89879271    -0.19800
F1262       F  0.56084398  0.67310551  0.83801438    -0.19900
F1263       F  0.61063689  0.65258660  0.86759329    -0.20200
F1264       F  0.55039629  0.68473203  0.88061305    -0.22900
C1265       C  0.62974321  0.75363165  0.82817120    -0.05700
C1266       C  0.65647393  0.71961501  0.83542617     0.00200
C1267       C  0.68187165  0.72379629  0.85848303    -0.08300
C1268       C  0.67375140  0.75821387  0.87539325    -0.05700
C1269       C  0.64375666  0.78969466  0.86920699     0.00200
C1270       C  0.62331908  0.78889787  0.84454394    -0.08300
C1271       C  0.59220274  0.82343019  0.83641546     0.62100
H1272       H  0.61196583  0.75148369  0.81007359     0.12800
H1273       H  0.68979437  0.76010571  0.89411903     0.12800
C1274       C  0.71717096  0.69256907  0.86568643     0.62400
F1275       F  0.57746916  0.81782769  0.81114963    -0.22800
F1276       F  0.61210497  0.86274684  0.83760827    -0.20100
F1277       F  0.55724717  0.82267795  0.85302305    -0.19800
F1278       F  0.74468444  0.68734590  0.84463952    -0.19900
F1279       F  0.69965638  0.65376043  0.87280122    -0.20200
F1280       F  0.74147967  0.70699226  0.88648497    -0.22900
C1281       C  0.75290420  0.58610432  0.51171512    -0.05700
C1282       C  0.79195587  0.57867200  0.49865625     0.00200
C1283       C  0.79140432  0.56988954  0.47152723    -0.08300
C1284       C  0.75157166  0.56823520  0.45847347    -0.05700
C1285       C  0.71231420  0.57535509  0.47148177     0.00200
C1286       C  0.71299925  0.58517406  0.49857310    -0.08300
C1287       C  0.67189434  0.59326832  0.51379511     0.62100
H1288       H  0.75398584  0.59244521  0.53251049     0.12800
H1289       H  0.75077876  0.56106348  0.43777853     0.12800
C1290       C  0.83259737  0.56043289  0.45668282     0.62400
F1291       F  0.67953030  0.59802687  0.54027332    -0.22800
F1292       F  0.64388741  0.55944123  0.51068337    -0.20100
F1293       F  0.65276773  0.63019132  0.50485761    -0.19800
F1294       F  0.85317579  0.52607278  0.46800210    -0.19900
F1295       F  0.85942387  0.59551135  0.45733679    -0.20200
F1296       F  0.82486153  0.55071857  0.43074092    -0.22900
C1297       C  0.97986867  0.50308238  0.47054675    -0.05700
C1298       C  0.96125036  0.48643264  0.49351051     0.00200
C1299       C  0.97535894  0.44630554  0.50292830    -0.08300
C1300       C  0.00854474  0.42533903  0.48944004    -0.05700
C1301       C  0.02792105  0.44244329  0.46682803     0.00200
C1302       C  0.01287340  0.48200938  0.45694250    -0.08300
C1303       C  0.03058313  0.50205584  0.43202236     0.62100
H1304       H  0.96871431  0.53361387  0.46349255     0.12800
H1305       H  0.01976955  0.39492533  0.49662064     0.12800
C1306       C  0.95663973  0.42575871  0.52738232     0.62400
F1307       F  0.01017194  0.53987463  0.42587186    -0.22800
F1308       F  0.02478767  0.47462850  0.41123575    -0.20100
F1309       F  0.07382078  0.51091461  0.43501997    -0.19800
F1310       F  0.91293744  0.41970185  0.52427462    -0.19900
F1311       F  0.96413406  0.45144770  0.54876590    -0.20200
F1312       F  0.97475351  0.38643746  0.53254475    -0.22900
C1313       C  0.18498814  0.48972274  0.73027630    -0.05700
C1314       C  0.14554134  0.50607588  0.72169524     0.00200
C1315       C  0.10747248  0.48228418  0.72641021    -0.08300
C1316       C  0.11026691  0.44359947  0.74028390    -0.05700
C1317       C  0.14958598  0.42770420  0.74948296     0.00200
C1318       C  0.18789499  0.45095323  0.74408540    -0.08300
C1319       C  0.23192248  0.43484190  0.75215987     0.62100
H1320       H  0.21379093  0.50802999  0.72626246     0.12800
H1321       H  0.08131966  0.42556583  0.74435704     0.12800
C1322       C  0.06430348  0.49645124  0.71585797     0.62400
F1323       F  0.26473795  0.45919875  0.74149988    -0.22800
F1324       F  0.23743644  0.39345153  0.74366458    -0.20100
F1325       F  0.23582786  0.43638079  0.77905539    -0.19800
F1326       F  0.06779786  0.50373497  0.68930940    -0.19900
F1327       F  0.05128456  0.53329204  0.72822472    -0.20200
F1328       F  0.03270996  0.46597221  0.71970057    -0.22900
C1329       C  0.25195006  0.70713420  0.71513209    -0.05700
C1330       C  0.21730664  0.68788134  0.72831627     0.00200
C1331       C  0.20525095  0.70322410  0.75338322    -0.08300
C1332       C  0.22892902  0.73692135  0.76438156    -0.05700
C1333       C  0.26385536  0.75571698  0.75126521     0.00200
C1334       C  0.27524864  0.74106284  0.72594611    -0.08300
C1335       C  0.31117506  0.76140372  0.70994300     0.62100
H1336       H  0.26029668  0.69585303  0.69579850     0.12800
H1337       H  0.22089879  0.74823893  0.78376149     0.12800
C1338       C  0.16836027  0.68381729  0.76887443     0.62400
F1339       F  0.30988214  0.74890107  0.68402457    -0.22800
F1340       F  0.35065346  0.74959524  0.71987958    -0.20100
F1341       F  0.30742524  0.80525744  0.71050559    -0.19800
F1342       F  0.17240459  0.64000506  0.76953340    -0.19900
F1343       F  0.12969414  0.69467606  0.75747066    -0.20200
F1344       F  0.16759270  0.69816215  0.79444066    -0.22900
C1345       C  0.03922793  0.54214686  0.62867771    -0.05700
C1346       C  0.07417634  0.56830772  0.62243949     0.00200
C1347       C  0.07735065  0.58595334  0.59697862    -0.08300
C1348       C  0.04384378  0.57856967  0.57912570    -0.05700
C1349       C  0.00691338  0.55523862  0.58607477     0.00200
C1350       C  0.00550155  0.53479891  0.61103386    -0.08300
C1351       C  0.96795291  0.50728826  0.62007949     0.62100
H1352       H  0.03735829  0.52937604  0.64826693     0.12800
H1353       H  0.04501235  0.59350485  0.56003698     0.12800
C1354       C  0.11359785  0.61592893  0.58945951     0.62400
F1355       F  0.97490728  0.48962580  0.64453551    -0.22800
F1356       F  0.96197511  0.47404404  0.60282599    -0.20100
F1357       F  0.93101010  0.53155277  0.62163174    -0.19800
F1358       F  0.15277980  0.59616662  0.59295409    -0.19900
F1359       F  0.11148272  0.65178427  0.60487135    -0.20200
F1360       F  0.11109236  0.62879591  0.56360257    -0.22900
C1361       C  0.83508355  0.92310071  0.74907053    -0.05700
C1362       C  0.83606437  0.92644773  0.72170766     0.00200
C1363       C  0.83647252  0.96733223  0.70989221    -0.08300
C1364       C  0.83581070  0.00359675  0.72605365    -0.05700
C1365       C  0.83398894  0.00026490  0.75341810     0.00200
C1366       C  0.83362717  0.95935879  0.76522573    -0.08300
C1367       C  0.83318504  0.95394381  0.79472974     0.62100
H1368       H  0.83510016  0.89159413  0.75770744     0.12800
H1369       H  0.83622507  0.03508875  0.71739524     0.12800
C1370       C  0.83892263  0.97270792  0.68040965     0.62400
F1371       F  0.83739570  0.91172157  0.80206525    -0.22800
F1372       F  0.79482812  0.96877287  0.80484385    -0.20100
F1373       F  0.86691000  0.97645527  0.80555422    -0.19800
F1374       F  0.80184707  0.95715898  0.66908559    -0.19900
F1375       F  0.87397292  0.95078547  0.67071125    -0.20200
F1376       F  0.84327584  0.01499167  0.67317870    -0.22900
C1377       C  0.79177595  0.70093605  0.72712674    -0.05700
C1378       C  0.77650238  0.74311740  0.72769835     0.00200
C1379       C  0.73761247  0.75240058  0.74069075    -0.08300
C1380       C  0.71428600  0.71865889  0.75181716    -0.05700
C1381       C  0.72858191  0.67629771  0.75035998     0.00200
C1382       C  0.76811497  0.66703214  0.73813641    -0.08300
C1383       C  0.78407365  0.62165634  0.73578454     0.62100
H1384       H  0.82171880  0.69451836  0.71706718     0.12800
H1385       H  0.68426970  0.72516531  0.76179223     0.12800
C1386       C  0.72120102  0.79765755  0.74325573     0.62400
F1387       F  0.82108798  0.61919109  0.72078575    -0.22800
F1388       F  0.75292587  0.59672963  0.72411231    -0.20100
F1389       F  0.79301033  0.60552246  0.76033164    -0.19800
F1390       F  0.70720181  0.81224005  0.71924204    -0.19900
F1391       F  0.75372142  0.82385543  0.75220980    -0.20200
F1392       F  0.68722922  0.80027106  0.76071974    -0.22900
C1393       C  0.89588870  0.70672969  0.62598657    -0.05700
C1394       C  0.85458371  0.71289743  0.63598333     0.00200
C1395       C  0.82084933  0.68514921  0.62840423    -0.08300
C1396       C  0.82928321  0.65419377  0.60913202    -0.05700
C1397       C  0.87016128  0.65025824  0.59779656     0.00200
C1398       C  0.90460248  0.67563227  0.60728472    -0.08300
C1399       C  0.95103615  0.66846381  0.59925290     0.62100
H1400       H  0.92142490  0.72755844  0.63249483     0.12800
H1401       H  0.80379505  0.63361423  0.60228192     0.12800
C1402       C  0.77680770  0.68715266  0.64110259     0.62400
F1403       F  0.97928429  0.69436614  0.61277510    -0.22800
F1404       F  0.95683039  0.67653568  0.57292645    -0.20100
F1405       F  0.96171961  0.62698494  0.60487914    -0.19800
F1406       F  0.75604462  0.72409234  0.63377172    -0.19900
F1407       F  0.78106650  0.68618981  0.66798868    -0.20200
F1408       F  0.75130800  0.65302115  0.63391582    -0.22900
C1409       C  0.23549875  0.83282104  0.51013288    -0.05700
C1410       C  0.20004699  0.85363246  0.49922816     0.00200
C1411       C  0.20354517  0.87164779  0.47399153    -0.08300
C1412       C  0.24314893  0.86930980  0.46065983    -0.05700
C1413       C  0.27946959  0.84949858  0.47168419     0.00200
C1414       C  0.27525799  0.83007002  0.49680325    -0.08300
C1415       C  0.31241122  0.80742152  0.50999720     0.62100
H1416       H  0.23180290  0.81915753  0.52946902     0.12800
H1417       H  0.24609386  0.88365780  0.44147971     0.12800
C1418       C  0.16572707  0.89429984  0.46160848     0.62400
F1419       F  0.30159223  0.79296914  0.53476022    -0.22800
F1420       F  0.34682126  0.83497852  0.51249041    -0.20100
F1421       F  0.32446474  0.77252388  0.49531932    -0.19800
F1422       F  0.15452342  0.92887902  0.47674075    -0.19900
F1423       F  0.13107032  0.86684781  0.46002595    -0.20200
F1424       F  0.17513769  0.90878085  0.43664481    -0.22900
C1425       C  0.98897240  0.91943909  0.48545416    -0.05700
C1426       C  0.02547850  0.94089631  0.49509610     0.00200
C1427       C  0.02831611  0.98563463  0.49211445    -0.08300
C1428       C  0.99470685  0.00680905  0.47930626    -0.05700
C1429       C  0.95832609  0.98527864  0.46960113     0.00200
C1430       C  0.95517974  0.94067141  0.47291435    -0.08300
C1431       C  0.91649553  0.91523317  0.46371038     0.62100
H1432       H  0.98652088  0.88537450  0.48819000     0.12800
H1433       H  0.99703202  0.04087641  0.47654130     0.12800
C1434       C  0.06635847  0.01132153  0.50197485     0.62400
F1435       F  0.91589467  0.91405711  0.43669278    -0.22800
F1436       F  0.87904890  0.93361028  0.47290571    -0.20100
F1437       F  0.91740178  0.87363769  0.47269150    -0.19800
F1438       F  0.06466360  0.05337348  0.49388029    -0.19900
F1439       F  0.10416238  0.99424080  0.49251560    -0.20200
F1440       F  0.06682025  0.01103998  0.52899767    -0.22900
C1441       C  0.10918186  0.74606239  0.63709666    -0.05700
C1442       C  0.14745941  0.72264120  0.63627591     0.00200
C1443       C  0.18033067  0.73497705  0.61822837    -0.08300
C1444       C  0.17200281  0.76861763  0.60063556    -0.05700
C1445       C  0.13237784  0.78947187  0.60048889     0.00200
C1446       C  0.10067533  0.77854753  0.61919918    -0.08300
C1447       C  0.05726442  0.80018753  0.61976323     0.62100
H1448       H  0.08443667  0.73712067  0.65096842     0.12800
H1449       H  0.19547680  0.77742894  0.58589713     0.12800
C1450       C  0.22353010  0.71269489  0.61681927     0.62400
F1451       F  0.03214226  0.78702005  0.64067633    -0.22800
F1452       F  0.03519326  0.79117946  0.59706644    -0.20100
F1453       F  0.06331254  0.84341802  0.62194018    -0.19800
F1454       F  0.21824022  0.67181138  0.60742573    -0.19900
F1455       F  0.24194253  0.71136263  0.64137980    -0.20200
F1456       F  0.25188811  0.73364087  0.60027909    -0.22900
C1457       C  0.94960440  0.85660648  0.58051368    -0.05700
C1458       C  0.98581590  0.88078077  0.58749532     0.00200
C1459       C  0.98375122  0.90572546  0.61070771    -0.08300
C1460       C  0.94989512  0.89798889  0.62848401    -0.05700
C1461       C  0.91605000  0.87021427  0.62255669     0.00200
C1462       C  0.91391076  0.85221998  0.59722354    -0.08300
C1463       C  0.87500963  0.82733323  0.58804283     0.62100
H1464       H  0.94982742  0.84008739  0.56198809     0.12800
H1465       H  0.95005338  0.91294650  0.64752412     0.12800
C1466       C  0.01578817  0.94094120  0.61679632     0.62400
F1467       F  0.87963297  0.81328819  0.56255877    -0.22800
F1468       F  0.83903540  0.85300313  0.58910767    -0.20100
F1469       F  0.86877566  0.79219531  0.60373971    -0.19800
F1470       F  0.01881153  0.96835798  0.59565999    -0.19900
F1471       F  0.05581592  0.92440295  0.62224643    -0.20200
F1472       F  0.00302581  0.96467164  0.63821352    -0.22900
loop_ 
_geom_bond_atom_site_label_1 
_geom_bond_atom_site_label_2 
_geom_bond_distance 
_geom_bond_site_symmetry_2 
_ccdc_geom_bond_type 
O1            V9   1.911       .  S
O1           C11   1.266       .  A
O2            V9   1.907       .  S
O2           C12   1.270       .  A
O3            V9   1.877       .  S
O3           C13   1.260       .  A
O4            V9   1.885       .  S
O4           C14   1.259       .  A
O5           V10   1.912       .  S
O5           C14   1.267       .  A
O6           V10   1.906       .  S
O6           C13   1.266       .  A
O7           V10   1.897       .  S
O7           C12   1.261       .  A
O8           V10   1.905       .  S
O8           C11   1.264       .  A
V9           V10   2.084       .  T
C11        C1410   1.483       .  S
C12        C1458   1.496   1_455  S
C13        C1426   1.486       .  S
C14        C1445   1.470       .  S
O15          V23   1.905       .  S
O15          C25   1.266       .  A
O16          V23   1.895       .  S
O16          C26   1.266       .  A
O17          V23   1.898       .  S
O17          C27   1.265       .  A
O18          V23   1.892       .  S
O18          C28   1.262       .  A
O19          V24   1.900       .  S
O19          C28   1.265       .  A
O20          V24   1.910       .  S
O20          C27   1.266       .  A
O21          V24   1.898       .  S
O21          C26   1.262       .  A
O22          V24   1.906       .  S
O22          C25   1.265       .  A
V23          V24   2.083       .  T
C25        C1362   1.485       .  S
C26        C1394   1.477       .  S
C27        C1461   1.483       .  S
C28        C1378   1.475       .  S
O29          V37   1.906       .  S
O29          C39   1.265       .  A
O30          V37   1.895       .  S
O30          C40   1.267       .  A
O31          V37   1.893       .  S
O31          C41   1.263       .  A
O32          V37   1.892       .  S
O32          C42   1.260       .  A
O33          V38   1.903       .  S
O33          C42   1.268       .  A
O34          V38   1.912       .  S
O34          C41   1.266       .  A
O35          V38   1.892       .  S
O35          C40   1.260       .  A
O36          V38   1.903       .  S
O36          C39   1.266       .  A
V37          V38   2.084       .  T
C39        C1314   1.490       .  S
C40        C1442   1.489       .  S
C41        C1346   1.482       .  S
C42        C1330   1.487       .  S
O43          V51   1.918       .  S
O43          C53   1.269       .  A
O44          V51   1.912       .  S
O44          C54   1.270       .  A
O45          V51   1.880       .  S
O45          C55   1.260       .  A
O46          V51   1.886       .  S
O46          C56   1.259       .  A
O47          V52   1.915       .  S
O47          C56   1.268       .  A
O48          V52   1.909       .  S
O48          C55   1.267       .  A
O49          V52   1.888       .  S
O49          C54   1.259       .  A
O50          V52   1.901       .  S
O50          C53   1.263       .  A
V51          V52   2.083       .  T
C53        C1282   1.490       .  S
C54        C1349   1.495   1_655  S
C55        C1298   1.489       .  S
C56        C1397   1.479       .  S
O57          V65   1.915       .  S
O57          C67   1.268       .  A
O58          V65   1.909       .  S
O58          C68   1.270       .  A
O59          V65   1.882       .  S
O59          C69   1.260       .  A
O60          V65   1.891       .  S
O60          C70   1.260       .  A
O61          V66   1.918       .  S
O61          C70   1.268       .  A
O62          V66   1.909       .  S
O62          C69   1.266       .  A
O63          V66   1.892       .  S
O63          C68   1.260       .  A
O64          V66   1.904       .  S
O64          C67   1.265       .  A
V65          V66   2.084       .  T
C67        C1237   1.495       .  S
C68        C1266   1.498       .  S
C69        C1381   1.474       .  S
C70        C1250   1.479       .  S
O71          V79   1.910       .  S
O71          C81   1.266       .  A
O72          V79   1.902       .  S
O72          C82   1.268       .  A
O73          V79   1.882       .  S
O73          C83   1.261       .  A
O74          V79   1.878       .  S
O74          C84   1.257       .  A
O75          V80   1.909       .  S
O75          C84   1.269       .  A
O76          V80   1.911       .  S
O76          C83   1.266       .  A
O77          V80   1.898       .  S
O77          C82   1.261       .  A
O78          V80   1.909       .  S
O78          C81   1.266       .  A
V79          V80   2.083       .  T
C81        C1186   1.490       .  S
C82        C1253   1.491       .  S
C83        C1218   1.478       .  S
C84        C1205   1.488       .  S
O85          V93   1.908       .  S
O85          C95   1.268       .  A
O86          V93   1.911       .  S
O86          C96   1.269       .  A
O87          V93   1.878       .  S
O87          C97   1.257       .  A
O88          V93   1.876       .  S
O88          C98   1.258       .  A
O89          V94   1.911       .  S
O89          C98   1.268       .  A
O90          V94   1.913       .  S
O90          C97   1.269       .  A
O91          V94   1.883       .  S
O91          C96   1.258       .  A
O92          V94   1.890       .  S
O92          C95   1.260       .  A
V93          V94   2.085       .  T
C95        C1154   1.479       .  S
C96        C1221   1.485       .  S
C97        C1333   1.482       .  S
C98        C1170   1.469       .  S
O99         V107   1.906       .  S
O99         C109   1.265       .  A
O100        V107   1.898       .  S
O100        C110   1.263       .  A
O101        V107   1.898       .  S
O101        C111   1.264       .  A
O102        V107   1.893       .  S
O102        C112   1.264       .  A
O103        V108   1.910       .  S
O103        C112   1.267       .  A
O104        V108   1.910       .  S
O104        C111   1.266       .  A
O105        V108   1.886       .  S
O105        C110   1.262       .  A
O106        V108   1.903       .  S
O106        C109   1.265       .  A
V107        V108   2.086       .  T
C109       C1122   1.484       .  S
C110       C1173   1.476       .  S
C111       C1269   1.479       .  S
C112       C1138   1.491       .  S
O113        V121   1.915       .  S
O113        C123   1.268       .  A
O114        V121   1.911       .  S
O114        C124   1.267       .  A
O115        V121   1.885       .  S
O115        C125   1.258       .  A
O116        V121   1.891       .  S
O116        C126   1.263       .  A
O117        V122   1.911       .  S
O117        C126   1.266       .  A
O118        V122   1.903       .  S
O118        C125   1.269       .  A
O119        V122   1.886       .  S
O119        C124   1.262       .  A
O120        V122   1.900       .  S
O120        C123   1.263       .  A
V121        V122   2.083       .  T
C123       C1074   1.487   1_554  S
C124       C1109   1.488       .  S
C125       C1202   1.489   1_554  S
C126       C1093   1.481       .  S
O127        V135   1.913       .  S
O127        C137   1.268       .  A
O128        V135   1.908       .  S
O128        C138   1.269       .  A
O129        V135   1.880       .  S
O129        C139   1.260       .  A
O130        V135   1.881       .  S
O130        C140   1.261       .  A
O131        V136   1.903       .  S
O131        C140   1.265       .  A
O132        V136   1.909       .  S
O132        C139   1.266       .  A
O133        V136   1.888       .  S
O133        C138   1.259       .  A
O134        V136   1.899       .  S
O134        C137   1.263       .  A
V135        V136   2.083       .  T
C137       C1026   1.495       .  S
C138       C1058   1.489       .  S
C139       C1106   1.469       .  S
C140       C1042   1.492       .  S
O141        V149   1.910       .  S
O141        C151   1.266       .  A
O142        V149   1.907       .  S
O142        C152   1.269       .  A
O143        V149   1.886       .  S
O143        C153   1.261       .  A
O144        V149   1.886       .  S
O144        C154   1.261       .  A
O145        V150   1.908       .  S
O145        C154   1.267       .  A
O146        V150   1.907       .  S
O146        C153   1.266       .  A
O147        V150   1.892       .  S
O147        C152   1.260       .  A
O148        V150   1.902       .  S
O148        C151   1.265       .  A
V149        V150   2.084       .  T
C151        C978   1.486       .  S
C152       C1090   1.492       .  S
C153       C1010   1.473       .  S
C154        C994   1.485       .  S
O155        V163   1.912       .  S
O155        C165   1.267       .  A
O156        V163   1.906       .  S
O156        C166   1.266       .  A
O157        V163   1.889       .  S
O157        C167   1.262       .  A
O158        V163   1.891       .  S
O158        C168   1.262       .  A
O159        V164   1.910       .  S
O159        C168   1.266       .  A
O160        V164   1.911   1_565  S
O160        C167   1.267   1_565  A
O161        V164   1.889       .  S
O161        C166   1.262       .  A
O162        V164   1.904       .  S
O162        C165   1.265       .  A
V163        V164   2.085       .  T
C165        C965   1.489   1_554  S
C166       C1013   1.485       .  S
C167       C1141   1.491   1_544  S
C168       C1061   1.477       .  S
O169        V177   1.901       .  S
O169        C179   1.264       .  A
O170        V177   1.895       .  S
O170        C180   1.263       .  A
O171        V177   1.885       .  S
O171        C181   1.262       .  A
O172        V177   1.886       .  S
O172        C182   1.262       .  A
O173        V178   1.910       .  S
O173        C182   1.266       .  A
O174        V178   1.909       .  S
O174        C181   1.267       .  A
O175        V178   1.884       .  S
O175        C180   1.262       .  A
O176        V178   1.898       .  S
O176        C179   1.264       .  A
V177        V178   2.085       .  T
C179        C914   1.482       .  S
C180        C946   1.480       .  S
C181        C997   1.488       .  S
C182        C933   1.478       .  S
O183        V191   1.917       .  S
O183        C193   1.269       .  A
O184        V191   1.912       .  S
O184        C194   1.269       .  A
O185        V191   1.889       .  S
O185        C195   1.261       .  A
O186        V191   1.887       .  S
O186        C196   1.262       .  A
O187        V192   1.905       .  S
O187        C196   1.266       .  A
O188        V192   1.911       .  S
O188        C195   1.267       .  A
O189        V192   1.890       .  S
O189        C194   1.260       .  A
O190        V192   1.901       .  S
O190        C193   1.263       .  A
V191        V192   2.084       .  T
C193        C882   1.492       .  S
C194        C930   1.491   1_455  S
C195        C898   1.475       .  S
C196       C1301   1.491       .  S
O197        V205   1.909       .  S
O197        C207   1.266       .  A
O198        V205   1.907       .  S
O198        C208   1.266       .  A
O199        V205   1.881       .  S
O199        C209   1.262       .  A
O200        V205   1.879       .  S
O200        C210   1.260       .  A
O201        V206   1.908       .  S
O201        C210   1.266       .  A
O202        V206   1.902       .  S
O202        C209   1.265       .  A
O203        V206   1.894       .  S
O203        C208   1.264       .  A
O204        V206   1.902       .  S
O204        C207   1.265       .  A
V205        V206   2.084       .  T
C207        C850   1.489       .  S
C208        C901   1.493       .  S
C209       C1045   1.490       .  S
C210        C869   1.472       .  S
O211        V219   1.900       .  S
O211        C221   1.264       .  A
O212        V219   1.901       .  S
O212        C222   1.267       .  A
O213        V219   1.874       .  S
O213        C223   1.258       .  A
O214        V219   1.876       .  S
O214        C224   1.260       .  A
O215        V220   1.903   1_565  S
O215        C224   1.266   1_565  A
O216        V220   1.906       .  S
O216        C223   1.265       .  A
O217        V220   1.887       .  S
O217        C222   1.259       .  A
O218        V220   1.893       .  S
O218        C221   1.263       .  A
V219        V220   2.086       .  T
C221        C834   1.479       .  S
C222        C866   1.480       .  S
C223        C949   1.461       .  S
C224       C1429   1.484   1_545  S
O225        V233   1.914       .  S
O225        C235   1.269       .  A
O226        V233   1.908       .  S
O226        C236   1.266       .  A
O227        V233   1.883       .  S
O227        C237   1.258       .  A
O228        V233   1.880       .  S
O228        C238   1.259       .  A
O229        V234   1.910       .  S
O229        C238   1.266       .  A
O230        V234   1.907       .  S
O230        C237   1.267       .  A
O231        V234   1.890       .  S
O231        C236   1.263       .  A
O232        V234   1.902       .  S
O232        C235   1.264       .  A
V233        V234   2.084       .  T
C235       C1234   1.500       .  S
C236        C821   1.491       .  S
C237        C786   1.474       .  S
C238        C802   1.471       .  S
O239        V247   1.911       .  S
O239        C249   1.266       .  A
O240        V247   1.904       .  S
O240        C250   1.265       .  A
O241        V247   1.884       .  S
O241        C251   1.262       .  A
O242        V247   1.886       .  S
O242        C252   1.262       .  A
O243        V248   1.902       .  S
O243        C252   1.265       .  A
O244        V248   1.906       .  S
O244        C251   1.265       .  A
O245        V248   1.894       .  S
O245        C250   1.264       .  A
O246        V248   1.906       .  S
O246        C249   1.267       .  A
V247        V248   2.083       .  T
C249        C885   1.500       .  S
C250        C805   1.491       .  S
C251        C770   1.475       .  S
C252        C754   1.489       .  S
O253        V261   1.911       .  S
O253        C263   1.268       .  A
O254        V261   1.910       .  S
O254        C264   1.269       .  A
O255        V261   1.875       .  S
O255        C265   1.258       .  A
O256        V261   1.874       .  S
O256        C266   1.257       .  A
O257        V262   1.911       .  S
O257        C266   1.268       .  A
O258        V262   1.910       .  S
O258        C265   1.269       .  A
O259        V262   1.880       .  S
O259        C264   1.257       .  A
O260        V262   1.887       .  S
O260        C263   1.259       .  A
V261        V262   2.086       .  T
C263       C1157   1.477       .  S
C264        C773   1.484       .  S
C265        C722   1.472       .  S
C266        C741   1.473       .  S
O267        V275   1.904       .  S
O267        C277   1.265       .  A
O268        V275   1.901       .  S
O268        C278   1.264       .  A
O269        V275   1.885       .  S
O269        C279   1.260       .  A
O270        V275   1.881       .  S
O270        C280   1.258       .  A
O271        V276   1.906       .  S
O271        C280   1.269       .  A
O272        V276   1.906       .  S
O272        C279   1.266       .  A
O273        V276   1.882       .  S
O273        C278   1.260       .  A
O274        V276   1.891       .  S
O274        C277   1.261       .  A
V275        V276   2.086       .  T
C277        C837   1.471       .  S
C278        C738   1.472       .  S
C279        C818   1.470       .  S
C280        C706   1.488   1_545  S
O281        V289   1.908       .  S
O281        C291   1.268       .  A
O282        V289   1.905       .  S
O282        C292   1.269       .  A
O283        V289   1.879       .  S
O283        C293   1.260       .  A
O284        V289   1.880       .  S
O284        C294   1.257       .  A
O285        V290   1.908       .  S
O285        C294   1.269       .  A
O286        V290   1.915       .  S
O286        C293   1.267       .  A
O287        V290   1.889       .  S
O287        C292   1.259       .  A
O288        V290   1.898       .  S
O288        C291   1.262       .  A
V289        V290   2.084       .  T
C291       C1317   1.493       .  S
C292        C690   1.490       .  S
C293        C674   1.477       .  S
C294        C725   1.479       .  S
O295        V303   1.908       .  S
O295        C305   1.266       .  A
O296        V303   1.906       .  S
O296        C306   1.268       .  A
O297        V303   1.884       .  S
O297        C307   1.261       .  A
O298        V303   1.886       .  S
O298        C308   1.260       .  A
O299        V304   1.908       .  S
O299        C308   1.266       .  A
O300        V304   1.906       .  S
O300        C307   1.266       .  A
O301        V304   1.895       .  S
O301        C306   1.261       .  A
O302        V304   1.905       .  S
O302        C305   1.266       .  A
V303        V304   2.084       .  T
C305       C1077   1.492       .  S
C306        C677   1.490       .  S
C307        C645   1.480       .  S
C308        C661   1.471       .  S
O309        V317   1.906       .  S
O309        C319   1.266       .  A
O310        V317   1.901       .  S
O310        C320   1.265       .  A
O311        V317   1.897       .  S
O311        C321   1.263       .  A
O312        V317   1.888       .  S
O312        C322   1.260       .  A
O313        V318   1.901       .  S
O313        C322   1.266       .  A
O314        V318   1.908       .  S
O314        C321   1.265       .  A
O315        V318   1.896       .  S
O315        C320   1.264       .  A
O316        V318   1.905       .  S
O316        C319   1.265       .  A
V317        V318   2.086       .  T
C319       C1365   1.487       .  S
C320        C658   1.490       .  S
C321        C626   1.477       .  S
C322        C789   1.473       .  S
O323        V331   1.914       .  S
O323        C333   1.267       .  A
O324        V331   1.905       .  S
O324        C334   1.270       .  A
O325        V331   1.880       .  S
O325        C335   1.259       .  A
O326        V331   1.888       .  S
O326        C336   1.260       .  A
O327        V332   1.910       .  S
O327        C336   1.266       .  A
O328        V332   1.904       .  S
O328        C335   1.266       .  A
O329        V332   1.894       .  S
O329        C334   1.260       .  A
O330        V332   1.901       .  S
O330        C333   1.265       .  A
V331        V332   2.085       .  T
C333        C962   1.491       .  S
C334        C629   1.496   1_455  S
C335        C610   1.478   1_545  S
C336        C693   1.471       .  S
O337        V345   1.909       .  S
O337        C347   1.266       .  A
O338        V345   1.902       .  S
O338        C348   1.268       .  A
O339        V345   1.886       .  S
O339        C349   1.262       .  A
O340        V345   1.887       .  S
O340        C350   1.262       .  A
O341        V346   1.908       .  S
O341        C350   1.267       .  A
O342        V346   1.915       .  S
O342        C349   1.267       .  A
O343        V346   1.892       .  S
O343        C348   1.260       .  A
O344        V346   1.903       .  S
O344        C347   1.266       .  A
V345        V346   2.083       .  T
C347       C1029   1.491       .  S
C348        C594   1.488       .  S
C349        C578   1.483       .  S
C350        C562   1.492       .  S
O351        V359   1.915       .  S
O351        C361   1.268       .  A
O352        V359   1.912       .  S
O352        C362   1.269       .  A
O353        V359   1.881       .  S
O353        C363   1.261       .  A
O354        V359   1.881       .  S
O354        C364   1.259       .  A
O355        V360   1.908       .  S
O355        C364   1.266       .  A
O356        V360   1.907       .  S
O356        C363   1.266       .  A
O357        V360   1.895       .  S
O357        C362   1.261       .  A
O358        V360   1.904       .  S
O358        C361   1.266       .  A
V359        V360   2.084       .  T
C361       C1285   1.498       .  S
C362        C581   1.492       .  S
C363        C757   1.488       .  S
C364        C546   1.471       .  S
O365        V373   1.912       .  S
O365        C375   1.267       .  A
O366        V373   1.903       .  S
O366        C376   1.268       .  A
O367        V373   1.885       .  S
O367        C377   1.258       .  A
O368        V373   1.891       .  S
O368        C378   1.261       .  A
O369        V374   1.911       .  S
O369        C378   1.266       .  A
O370        V374   1.901       .  S
O370        C377   1.268       .  A
O371        V374   1.893       .  S
O371        C376   1.260       .  A
O372        V374   1.902       .  S
O372        C375   1.266       .  A
V373        V374   2.082       .  T
C375       C1413   1.502       .  S
C376        C530   1.493       .  S
C377        C709   1.489       .  S
C378        C597   1.474       .  S
O379        V387   1.910       .  S
O379        C389   1.267       .  A
O380        V387   1.907       .  S
O380        C390   1.266       .  A
O381        V387   1.893       .  S
O381        C391   1.262       .  A
O382        V387   1.885       .  S
O382        C392   1.261       .  A
O383        V388   1.902       .  S
O383        C392   1.265       .  A
O384        V388   1.910       .  S
O384        C391   1.266       .  A
O385        V388   1.891       .  S
O385        C390   1.262       .  A
O386        V388   1.900       .  S
O386        C389   1.264       .  A
V387        V388   2.085       .  T
C389        C981   1.485       .  S
C390        C549   1.484       .  S
C391        C533   1.474       .  S
C392        C514   1.486       .  S
O393        V401   1.913       .  S
O393        C403   1.269       .  A
O394        V401   1.906       .  S
O394        C404   1.269       .  A
O395        V401   1.887       .  S
O395        C405   1.262       .  A
O396        V401   1.887       .  S
O396        C406   1.262       .  A
O397        V402   1.916       .  S
O397        C406   1.267       .  A
O398        V402   1.910       .  S
O398        C405   1.267       .  A
O399        V402   1.885       .  S
O399        C404   1.258       .  A
O400        V402   1.899       .  S
O400        C403   1.263       .  A
V401        V402   2.082       .  T
C403        C853   1.498       .  S
C404        C501   1.490       .  S
C405        C565   1.495       .  S
C406        C482   1.485       .  S
O407        V415   1.916       .  S
O407        C417   1.269       .  A
O408        V415   1.919       .  S
O408        C418   1.272       .  A
O409        V415   1.873       .  S
O409        C419   1.255       .  A
O410        V415   1.865       .  S
O410        C420   1.256       .  A
O411        V416   1.912       .  S
O411        C420   1.268       .  A
O412        V416   1.918       .  S
O412        C419   1.270       .  A
O413        V416   1.880       .  S
O413        C418   1.256       .  A
O414        V416   1.894       .  S
O414        C417   1.262       .  A
V415        V416   2.084       .  T
C417       C1125   1.489   1_554  S
C418        C485   1.493       .  S
C419        C466   1.480       .  S
C420        C613   1.476       .  S
O421        V429   1.913       .  S
O421        C431   1.267       .  A
O422        V429   1.905       .  S
O422        C432   1.266       .  A
O423        V429   1.889       .  S
O423        C433   1.261       .  A
O424        V429   1.888       .  S
O424        C434   1.261       .  A
O425        V430   1.903       .  S
O425        C434   1.266       .  A
O426        V430   1.907       .  S
O426        C433   1.265       .  A
O427        V430   1.897       .  S
O427        C432   1.264       .  A
O428        V430   1.905       .  S
O428        C431   1.266       .  A
V429        V430   2.084       .  T
C431       C1189   1.495       .  S
C432        C453   1.493   1_455  S
C433        C498   1.470       .  S
C434        C642   1.481   1_554  S
O435        V443   1.901       .  S
O435        C445   1.264       .  A
O436        V443   1.894       .  S
O436        C446   1.265       .  A
O437        V443   1.887       .  S
O437        C447   1.263       .  A
O438        V443   1.891       .  S
O438        C448   1.261       .  A
O439        V444   1.904       .  S
O439        C448   1.266       .  A
O440        V444   1.901       .  S
O440        C447   1.265       .  A
O441        V444   1.891       .  S
O441        C446   1.260       .  A
O442        V444   1.897       .  S
O442        C445   1.264       .  A
V443        V444   2.086       .  T
C445        C917   1.476       .  S
C446        C469   1.463       .  S
C447        C517   1.486       .  S
C448        C450   1.473       .  S
C449        C450   1.400       .  A
C449        C454   1.406       .  A
C449        H456   1.084       .  S
C450        C451   1.412       .  A
C451        C452   1.408       .  A
C451        C458   1.519       .  S
C452        C453   1.411       .  A
C452        H457   1.083   1_655  S
C453        C454   1.423       .  A
C454        C455   1.519       .  S
C455        F459   1.385       .  S
C455        F460   1.381       .  S
C455        F461   1.381       .  S
C458        F462   1.383       .  S
C458        F463   1.382       .  S
C458        F464   1.385       .  S
C465        C466   1.405       .  A
C465        C470   1.410       .  A
C465        H472   1.083       .  S
C466        C467   1.429       .  A
C467        C468   1.395       .  A
C467        C474   1.523       .  S
C468        C469   1.391       .  A
C468        H473   1.084       .  S
C469        C470   1.414       .  A
C470        C471   1.516       .  S
C471        F475   1.384       .  S
C471        F476   1.382       .  S
C471        F477   1.382       .  S
C474        F478   1.378       .  S
C474        F479   1.382       .  S
C474        F480   1.385       .  S
C481        C482   1.400       .  A
C481        C486   1.406   1_455  A
C481        H488   1.083       .  S
C482        C483   1.418       .  A
C483        C484   1.410       .  A
C483        C490   1.515       .  S
C484        C485   1.405   1_455  A
C484        H489   1.082       .  S
C485        C486   1.428       .  A
C486        C487   1.524       .  S
C487        F491   1.385       .  S
C487        F492   1.384       .  S
C487        F493   1.383       .  S
C490        F494   1.381       .  S
C490        F495   1.383       .  S
C490        F496   1.385       .  S
C497        C498   1.397       .  A
C497        C502   1.407       .  A
C497        H504   1.083       .  S
C498        C499   1.413       .  A
C499        C500   1.403       .  A
C499        C506   1.515       .  S
C500        C501   1.406       .  A
C500        H505   1.082       .  S
C501        C502   1.428       .  A
C502        C503   1.522       .  S
C503        F507   1.385       .  S
C503        F508   1.384       .  S
C503        F509   1.381       .  S
C506        F510   1.383       .  S
C506        F511   1.378       .  S
C506        F512   1.385       .  S
C513        C514   1.410       .  A
C513        C518   1.406       .  A
C513        H520   1.082       .  S
C514        C515   1.415       .  A
C515        C516   1.405       .  A
C515        C522   1.520       .  S
C516        C517   1.410       .  A
C516        H521   1.082       .  S
C517        C518   1.417       .  A
C518        C519   1.521       .  S
C519        F523   1.385       .  S
C519        F524   1.384       .  S
C519        F525   1.383       .  S
C522        F526   1.382       .  S
C522        F527   1.384       .  S
C522        F528   1.385       .  S
C529        C530   1.405       .  A
C529        C534   1.401       .  A
C529        H536   1.082       .  S
C530        C531   1.427       .  A
C531        C532   1.410       .  A
C531        C538   1.519       .  S
C532        C533   1.398       .  A
C532        H537   1.083       .  S
C533        C534   1.413       .  A
C534        C535   1.513       .  S
C535        F539   1.385       .  S
C535        F540   1.380       .  S
C535        F541   1.382       .  S
C538        F542   1.384       .  S
C538        F543   1.383       .  S
C538        F544   1.385       .  S
C545        C546   1.400       .  A
C545        C550   1.406       .  A
C545        H552   1.078       .  S
C546        C547   1.413       .  A
C547        C548   1.402       .  A
C547        C554   1.519       .  S
C548        C549   1.406       .  A
C548        H553   1.081       .  S
C549        C550   1.419       .  A
C550        C551   1.517       .  S
C551        F555   1.380       .  S
C551        F556   1.382       .  S
C551        F557   1.385       .  S
C554        F558   1.384       .  S
C554        F559   1.382       .  S
C554        F560   1.385       .  S
C561        C562   1.410       .  A
C561        C566   1.407       .  A
C561        H568   1.082       .  S
C562        C563   1.417       .  A
C563        C564   1.408       .  A
C563        C570   1.520       .  S
C564        C565   1.412       .  A
C564        H569   1.082       .  S
C565        C566   1.418       .  A
C566        C567   1.519       .  S
C567        F571   1.385       .  S
C567        F572   1.380       .  S
C567        F573   1.383       .  S
C570        F574   1.383       .  S
C570        F575   1.384       .  S
C570        F576   1.385       .  S
C577        C578   1.401       .  A
C577        C582   1.406       .  A
C577        H584   1.083       .  S
C578        C579   1.417       .  A
C579        C580   1.411       .  A
C579        C586   1.517       .  S
C580        C581   1.407       .  A
C580        H585   1.083       .  S
C581        C582   1.424       .  A
C582        C583   1.520       .  S
C583        F587   1.385       .  S
C583        F588   1.383       .  S
C583        F589   1.379       .  S
C586        F590   1.383       .  S
C586        F591   1.382       .  S
C586        F592   1.385       .  S
C593        C594   1.402       .  A
C593        C598   1.399       .  A
C593        H600   1.082       .  S
C594        C595   1.427       .  A
C595        C596   1.412       .  A
C595        C602   1.519       .  S
C596        C597   1.398       .  A
C596        H601   1.083       .  S
C597        C598   1.415       .  A
C598        C599   1.514       .  S
C599        F603   1.385       .  S
C599        F604   1.380       .  S
C599        F605   1.382       .  S
C602        F606   1.383       .  S
C602        F607   1.384       .  S
C602        F608   1.385       .  S
C609        C610   1.412   1_645  A
C609        C614   1.406   1_545  A
C609        H616   1.083       .  S
C610        C611   1.412       .  A
C611        C612   1.401   1_455  A
C611        C618   1.520       .  S
C612        C613   1.410   1_556  A
C612        H617   1.083   1_656  S
C613        C614   1.409   1_554  A
C614        C615   1.518   1_565  S
C615        F619   1.384       .  S
C615        F620   1.383   1_556  S
C615        F621   1.384   1_545  S
C618        F622   1.383       .  S
C618        F623   1.382       .  S
C618        F624   1.385       .  S
C625        C626   1.399       .  A
C625        C630   1.411       .  A
C625        H632   1.083       .  S
C626        C627   1.415       .  A
C627        C628   1.402       .  A
C627        C634   1.515       .  S
C628        C629   1.405       .  A
C628        H633   1.082       .  S
C629        C630   1.429       .  A
C630        C631   1.521   1_645  S
C631        F635   1.385   1_455  S
C631        F636   1.384       .  S
C631        F637   1.382   1_565  S
C634        F638   1.382       .  S
C634        F639   1.379       .  S
C634        F640   1.385       .  S
C641        C642   1.409   1_655  A
C641        C646   1.407       .  A
C641        H648   1.081       .  S
C642        C643   1.414       .  A
C643        C644   1.405   1_455  A
C643        C650   1.519       .  S
C644        C645   1.409       .  A
C644        H649   1.083   1_655  S
C645        C646   1.413       .  A
C646        C647   1.519       .  S
C647        F651   1.384       .  S
C647        F652   1.384       .  S
C647        F653   1.382       .  S
C650        F654   1.382   1_556  S
C650        F655   1.384       .  S
C650        F656   1.385       .  S
C657        C658   1.409       .  A
C657        C662   1.404       .  A
C657        H664   1.083       .  S
C658        C659   1.423       .  A
C659        C660   1.407       .  A
C659        C666   1.519       .  S
C660        C661   1.400       .  A
C660        H665   1.083       .  S
C661        C662   1.411       .  A
C662        C663   1.518       .  S
C663        F667   1.385       .  S
C663        F668   1.384       .  S
C663        F669   1.382       .  S
C666        F670   1.384       .  S
C666        F671   1.383       .  S
C666        F672   1.385       .  S
C673        C674   1.401       .  A
C673        C678   1.405   1_455  A
C673        H680   1.083       .  S
C674        C675   1.415       .  A
C675        C676   1.409       .  A
C675        C682   1.518       .  S
C676        C677   1.408   1_455  A
C676        H681   1.082       .  S
C677        C678   1.423       .  A
C678        C679   1.521       .  S
C679        F683   1.385       .  S
C679        F684   1.383       .  S
C679        F685   1.382       .  S
C682        F686   1.383       .  S
C682        F687   1.382       .  S
C682        F688   1.385       .  S
C689        C690   1.403       .  A
C689        C694   1.399       .  A
C689        H696   1.082       .  S
C690        C691   1.429       .  A
C691        C692   1.411       .  A
C691        C698   1.519       .  S
C692        C693   1.397       .  A
C692        H697   1.083       .  S
C693        C694   1.414       .  A
C694        C695   1.514       .  S
C695        F699   1.385       .  S
C695        F700   1.381       .  S
C695        F701   1.381       .  S
C698        F702   1.383       .  S
C698        F703   1.383       .  S
C698        F704   1.385       .  S
C705        C706   1.405       .  A
C705        C710   1.407       .  A
C705        H712   1.082       .  S
C706        C707   1.423   1_565  A
C707        C708   1.404   1_545  A
C707        C714   1.522       .  S
C708        C709   1.405       .  A
C708        H713   1.082       .  S
C709        C710   1.424       .  A
C710        C711   1.521       .  S
C711        F715   1.385       .  S
C711        F716   1.383       .  S
C711        F717   1.383       .  S
C714        F718   1.382       .  S
C714        F719   1.383       .  S
C714        F720   1.385       .  S
C721        C722   1.402       .  A
C721        C726   1.407       .  A
C721        H728   1.084       .  S
C722        C723   1.417       .  A
C723        C724   1.401       .  A
C723        C730   1.520       .  S
C724        C725   1.402       .  A
C724        H729   1.084       .  S
C725        C726   1.421       .  A
C726        C727   1.520       .  S
C727        F731   1.385       .  S
C727        F732   1.384       .  S
C727        F733   1.383       .  S
C730        F734   1.383       .  S
C730        F735   1.382       .  S
C730        F736   1.384       .  S
C737        C738   1.401       .  A
C737        C742   1.398       .  A
C737        H744   1.084       .  S
C738        C739   1.416       .  A
C739        C740   1.406       .  A
C739        C746   1.519       .  S
C740        C741   1.404       .  A
C740        H745   1.080       .  S
C741        C742   1.419       .  A
C742        C743   1.520       .  S
C743        F747   1.385       .  S
C743        F748   1.381       .  S
C743        F749   1.383       .  S
C746        F750   1.384       .  S
C746        F751   1.383       .  S
C746        F752   1.383       .  S
C753        C754   1.407       .  A
C753        C758   1.407       .  A
C753        H760   1.082       .  S
C754        C755   1.422       .  A
C755        C756   1.406       .  A
C755        C762   1.522       .  S
C756        C757   1.406       .  A
C756        H761   1.082       .  S
C757        C758   1.421       .  A
C758        C759   1.521       .  S
C759        F763   1.385       .  S
C759        F764   1.383       .  S
C759        F765   1.383       .  S
C762        F766   1.383       .  S
C762        F767   1.383       .  S
C762        F768   1.385       .  S
C769        C770   1.398       .  A
C769        C774   1.402       .  A
C769        H776   1.082       .  S
C770        C771   1.417       .  A
C771        C772   1.406       .  A
C771        C778   1.517       .  S
C772        C773   1.404       .  A
C772        H777   1.082       .  S
C773        C774   1.425       .  A
C774        C775   1.522       .  S
C775        F779   1.385       .  S
C775        F780   1.383       .  S
C775        F781   1.381       .  S
C778        F782   1.382       .  S
C778        F783   1.380       .  S
C778        F784   1.385       .  S
C785        C786   1.405       .  A
C785        C790   1.407       .  A
C785        H792   1.084       .  S
C786        C787   1.416       .  A
C787        C788   1.405       .  A
C787        C794   1.519       .  S
C788        C789   1.404       .  A
C788        H793   1.084       .  S
C789        C790   1.414       .  A
C790        C791   1.518       .  S
C791        F795   1.384       .  S
C791        F796   1.384       .  S
C791        F797   1.382       .  S
C794        F798   1.382       .  S
C794        F799   1.384       .  S
C794        F800   1.385       .  S
C801        C802   1.401       .  A
C801        C806   1.409       .  A
C801        H808   1.084       .  S
C802        C803   1.412       .  A
C803        C804   1.404       .  A
C803        C810   1.520       .  S
C804        C805   1.409       .  A
C804        H809   1.083       .  S
C805        C806   1.424       .  A
C806        C807   1.519       .  S
C807        F811   1.385       .  S
C807        F812   1.384       .  S
C807        F813   1.383       .  S
C810        F814   1.384       .  S
C810        F815   1.382       .  S
C810        F816   1.384       .  S
C817        C818   1.400       .  A
C817        C822   1.407       .  A
C817        H824   1.084       .  S
C818        C819   1.411       .  A
C819        C820   1.405       .  A
C819        C826   1.520       .  S
C820        C821   1.411       .  A
C820        H825   1.083       .  S
C821        C822   1.423       .  A
C822        C823   1.519       .  S
C823        F827   1.384       .  S
C823        F828   1.383       .  S
C823        F829   1.385       .  S
C826        F830   1.382       .  S
C826        F831   1.383       .  S
C826        F832   1.385       .  S
C833        C834   1.406       .  A
C833        C838   1.405       .  A
C833        H840   1.082       .  S
C834        C835   1.418       .  A
C835        C836   1.407       .  A
C835        C842   1.519       .  S
C836        C837   1.402       .  A
C836        H841   1.082       .  S
C837        C838   1.412       .  A
C838        C839   1.517       .  S
C839        F843   1.384       .  S
C839        F844   1.382       .  S
C839        F845   1.384       .  S
C842        F846   1.383       .  S
C842        F847   1.384       .  S
C842        F848   1.384       .  S
C849        C850   1.401   1_565  A
C849        C854   1.409       .  A
C849        H856   1.084   1_565  S
C850        C851   1.419   1_545  A
C851        C852   1.412       .  A
C851        C858   1.516       .  S
C852        C853   1.407       .  A
C852        H857   1.083       .  S
C853        C854   1.425       .  A
C854        C855   1.518       .  S
C855        F859   1.385       .  S
C855        F860   1.383       .  S
C855        F861   1.380       .  S
C858        F862   1.382   1_565  S
C858        F863   1.381       .  S
C858        F864   1.385       .  S
C865        C866   1.405   1_455  A
C865        C870   1.405       .  A
C865        H872   1.082       .  S
C866        C867   1.421       .  A
C867        C868   1.402   1_655  A
C867        C874   1.521       .  S
C868        C869   1.400       .  A
C868        H873   1.079       .  S
C869        C870   1.414       .  A
C870        C871   1.517       .  S
C871        F875   1.385       .  S
C871        F876   1.381       .  S
C871        F877   1.383       .  S
C874        F878   1.380       .  S
C874        F879   1.383   1_545  S
C874        F880   1.385       .  S
C881        C882   1.404       .  A
C881        C886   1.414       .  A
C881        H888   1.082       .  S
C882        C883   1.419       .  A
C883        C884   1.411       .  A
C883        C890   1.520       .  S
C884        C885   1.407       .  A
C884        H889   1.083       .  S
C885        C886   1.425       .  A
C886        C887   1.519       .  S
C887        F891   1.385       .  S
C887        F892   1.383       .  S
C887        F893   1.383       .  S
C890        F894   1.384       .  S
C890        F895   1.382       .  S
C890        F896   1.385       .  S
C897        C898   1.401       .  A
C897        C902   1.408       .  A
C897        H904   1.082       .  S
C898        C899   1.413       .  A
C899        C900   1.404       .  A
C899        C906   1.517       .  S
C900        C901   1.409       .  A
C900        H905   1.085       .  S
C901        C902   1.423       .  A
C902        C903   1.520       .  S
C903        F907   1.385       .  S
C903        F908   1.383       .  S
C903        F909   1.384       .  S
C906        F910   1.383       .  S
C906        F911   1.382       .  S
C906        F912   1.384       .  S
C913        C914   1.407       .  A
C913        C918   1.408       .  A
C913        H920   1.083       .  S
C914        C915   1.418       .  A
C915        C916   1.406       .  A
C915        C922   1.519       .  S
C916        C917   1.403       .  A
C916        H921   1.083       .  S
C917        C918   1.415       .  A
C918        C919   1.518       .  S
C919        F923   1.385       .  S
C919        F924   1.383       .  S
C919        F925   1.383       .  S
C922        F926   1.383       .  S
C922        F927   1.383       .  S
C922        F928   1.385       .  S
C929        C930   1.407       .  A
C929        C934   1.409       .  A
C929        H936   1.082       .  S
C930        C931   1.425       .  A
C931        C932   1.405       .  A
C931        C938   1.521   1_655  S
C932        C933   1.400       .  A
C932        H937   1.083       .  S
C933        C934   1.416       .  A
C934        C935   1.518       .  S
C935        F939   1.384       .  S
C935        F940   1.382       .  S
C935        F941   1.383       .  S
C938        F942   1.380       .  S
C938        F943   1.383       .  S
C938        F944   1.385       .  S
C945        C946   1.408       .  A
C945        C950   1.400       .  A
C945        H952   1.083       .  S
C946        C947   1.422       .  A
C947        C948   1.403       .  A
C947        C954   1.520       .  S
C948        C949   1.397       .  A
C948        H953   1.080       .  S
C949        C950   1.410       .  A
C950        C951   1.519       .  S
C951        F955   1.385       .  S
C951        F956   1.382       .  S
C951        F957   1.384       .  S
C954        F958   1.383       .  S
C954        F959   1.384       .  S
C954        F960   1.385       .  S
C961        C962   1.406       .  A
C961        C966   1.411       .  A
C961        H968   1.083       .  S
C962        C963   1.419       .  A
C963        C964   1.413   1_556  A
C963        C970   1.519   1_556  S
C964        C965   1.406   1_554  A
C964        H969   1.083       .  S
C965        C966   1.416       .  A
C966        C967   1.517       .  S
C967        F971   1.385       .  S
C967        F972   1.383       .  S
C967        F973   1.383       .  S
C970        F974   1.383       .  S
C970        F975   1.383       .  S
C970        F976   1.385       .  S
C977        C978   1.405   1_565  A
C977        C982   1.410       .  A
C977        H984   1.083       .  S
C978        C979   1.417       .  A
C979        C980   1.411   1_545  A
C979        C986   1.518       .  S
C980        C981   1.405       .  A
C980        H985   1.083       .  S
C981        C982   1.417       .  A
C982        C983   1.519       .  S
C983        F987   1.384       .  S
C983        F988   1.382       .  S
C983        F989   1.383       .  S
C986        F990   1.382       .  S
C986        F991   1.384       .  S
C986        F992   1.385       .  S
C993        C994   1.405       .  A
C993        C998   1.408       .  A
C993       H1000   1.083       .  S
C994        C995   1.420       .  A
C995        C996   1.406       .  A
C995       C1002   1.520       .  S
C996        C997   1.406       .  A
C996       H1001   1.082       .  S
C997        C998   1.422       .  A
C998        C999   1.520       .  S
C999       F1003   1.385       .  S
C999       F1004   1.383       .  S
C999       F1005   1.382       .  S
C1002      F1006   1.381       .  S
C1002      F1007   1.383       .  S
C1002      F1008   1.385       .  S
C1009      C1010   1.403       .  A
C1009      C1014   1.409       .  A
C1009      H1016   1.083       .  S
C1010      C1011   1.412       .  A
C1011      C1012   1.401       .  A
C1011      C1018   1.517       .  S
C1012      C1013   1.406       .  A
C1012      H1017   1.083       .  S
C1013      C1014   1.420       .  A
C1014      C1015   1.518       .  S
C1015      F1019   1.385       .  S
C1015      F1020   1.382       .  S
C1015      F1021   1.384       .  S
C1018      F1022   1.382       .  S
C1018      F1023   1.384       .  S
C1018      F1024   1.385   1_545  S
C1025      C1026   1.407       .  A
C1025      C1030   1.413       .  A
C1025      H1032   1.083       .  S
C1026      C1027   1.423       .  A
C1027      C1028   1.409       .  A
C1027      C1034   1.520       .  S
C1028      C1029   1.403       .  A
C1028      H1033   1.083       .  S
C1029      C1030   1.420       .  A
C1030      C1031   1.518       .  S
C1031      F1035   1.385       .  S
C1031      F1036   1.383       .  S
C1031      F1037   1.382       .  S
C1034      F1038   1.383       .  S
C1034      F1039   1.383       .  S
C1034      F1040   1.385       .  S
C1041      C1042   1.411       .  A
C1041      C1046   1.406       .  A
C1041      H1048   1.081       .  S
C1042      C1043   1.419       .  A
C1043      C1044   1.404       .  A
C1043      C1050   1.522       .  S
C1044      C1045   1.410       .  A
C1044      H1049   1.081       .  S
C1045      C1046   1.419       .  A
C1046      C1047   1.522       .  S
C1047      F1051   1.385       .  S
C1047      F1052   1.384       .  S
C1047      F1053   1.383       .  S
C1050      F1054   1.383       .  S
C1050      F1055   1.383       .  S
C1050      F1056   1.385       .  S
C1057      C1058   1.404       .  A
C1057      C1062   1.404       .  A
C1057      H1064   1.082       .  S
C1058      C1059   1.426       .  A
C1059      C1060   1.408       .  A
C1059      C1066   1.521       .  S
C1060      C1061   1.399       .  A
C1060      H1065   1.083       .  S
C1061      C1062   1.415       .  A
C1062      C1063   1.514       .  S
C1063      F1067   1.385       .  S
C1063      F1068   1.377       .  S
C1063      F1069   1.383       .  S
C1066      F1070   1.382       .  S
C1066      F1071   1.384       .  S
C1066      F1072   1.385       .  S
C1073      C1074   1.404   1_554  A
C1073      C1078   1.412   1_554  A
C1073      H1080   1.083       .  S
C1074      C1075   1.416       .  A
C1075      C1076   1.411       .  A
C1075      C1082   1.518       .  S
C1076      C1077   1.407       .  A
C1076      H1081   1.083       .  S
C1077      C1078   1.420       .  A
C1078      C1079   1.519   1_556  S
C1079      F1083   1.384       .  S
C1079      F1084   1.384       .  S
C1079      F1085   1.382       .  S
C1082      F1086   1.384       .  S
C1082      F1087   1.382       .  S
C1082      F1088   1.384       .  S
C1089      C1090   1.405       .  A
C1089      C1094   1.406       .  A
C1089      H1096   1.083       .  S
C1090      C1091   1.425       .  A
C1091      C1092   1.408       .  A
C1091      C1098   1.520       .  S
C1092      C1093   1.400       .  A
C1092      H1097   1.083       .  S
C1093      C1094   1.417       .  A
C1094      C1095   1.516       .  S
C1095      F1099   1.385       .  S
C1095      F1100   1.378       .  S
C1095      F1101   1.383       .  S
C1098      F1102   1.383       .  S
C1098      F1103   1.383       .  S
C1098      F1104   1.385       .  S
C1105      C1106   1.403       .  A
C1105      C1110   1.411       .  A
C1105      H1112   1.082       .  S
C1106      C1107   1.410       .  A
C1107      C1108   1.398       .  A
C1107      C1114   1.517       .  S
C1108      C1109   1.408       .  A
C1108      H1113   1.084       .  S
C1109      C1110   1.422       .  A
C1110      C1111   1.519       .  S
C1111      F1115   1.385       .  S
C1111      F1116   1.383       .  S
C1111      F1117   1.384       .  S
C1114      F1118   1.383       .  S
C1114      F1119   1.384       .  S
C1114      F1120   1.384       .  S
C1121      C1122   1.405       .  A
C1121      C1126   1.411       .  A
C1121      H1128   1.083       .  S
C1122      C1123   1.416       .  A
C1123      C1124   1.410   1_556  A
C1123      C1130   1.519   1_556  S
C1124      C1125   1.407   1_554  A
C1124      H1129   1.083       .  S
C1125      C1126   1.418       .  A
C1126      C1127   1.518       .  S
C1127      F1131   1.385       .  S
C1127      F1132   1.382       .  S
C1127      F1133   1.384       .  S
C1130      F1134   1.382       .  S
C1130      F1135   1.384       .  S
C1130      F1136   1.385       .  S
C1137      C1138   1.404       .  A
C1137      C1142   1.409   1_556  A
C1137      H1144   1.083   1_556  S
C1138      C1139   1.424       .  A
C1139      C1140   1.408   1_565  A
C1139      C1146   1.520       .  S
C1140      C1141   1.404   1_545  A
C1140      H1145   1.083       .  S
C1141      C1142   1.423   1_556  A
C1142      C1143   1.519       .  S
C1143      F1147   1.385       .  S
C1143      F1148   1.382       .  S
C1143      F1149   1.380       .  S
C1146      F1150   1.379       .  S
C1146      F1151   1.382   1_565  S
C1146      F1152   1.385   1_565  S
C1153      C1154   1.400       .  A
C1153      C1158   1.406       .  A
C1153      H1160   1.083       .  S
C1154      C1155   1.423       .  A
C1155      C1156   1.407   1_565  A
C1155      C1162   1.521       .  S
C1156      C1157   1.399       .  A
C1156      H1161   1.083       .  S
C1157      C1158   1.420   1_545  A
C1158      C1159   1.520       .  S
C1159      F1163   1.385       .  S
C1159      F1164   1.380       .  S
C1159      F1165   1.382       .  S
C1162      F1166   1.380       .  S
C1162      F1167   1.382       .  S
C1162      F1168   1.385   1_565  S
C1169      C1170   1.401       .  A
C1169      C1174   1.406       .  A
C1169      H1176   1.082       .  S
C1170      C1171   1.417       .  A
C1171      C1172   1.396       .  A
C1171      C1178   1.518       .  S
C1172      C1173   1.402       .  A
C1172      H1177   1.085       .  S
C1173      C1174   1.419       .  A
C1174      C1175   1.519       .  S
C1175      F1179   1.385       .  S
C1175      F1180   1.383       .  S
C1175      F1181   1.383       .  S
C1178      F1182   1.380       .  S
C1178      F1183   1.383       .  S
C1178      F1184   1.384       .  S
C1185      C1186   1.405       .  A
C1185      C1190   1.414       .  A
C1185      H1192   1.083       .  S
C1186      C1187   1.416       .  A
C1187      C1188   1.411   1_556  A
C1187      C1194   1.517   1_556  S
C1188      C1189   1.407       .  A
C1188      H1193   1.083       .  S
C1189      C1190   1.421   1_554  A
C1190      C1191   1.518       .  S
C1191      F1195   1.384       .  S
C1191      F1196   1.383       .  S
C1191      F1197   1.383       .  S
C1194      F1198   1.382       .  S
C1194      F1199   1.383       .  S
C1194      F1200   1.384       .  S
C1201      C1202   1.404   1_554  A
C1201      C1206   1.404   1_554  A
C1201      H1208   1.082       .  S
C1202      C1203   1.424       .  A
C1203      C1204   1.408       .  A
C1203      C1210   1.521       .  S
C1204      C1205   1.405       .  A
C1204      H1209   1.082       .  S
C1205      C1206   1.424       .  A
C1206      C1207   1.523   1_556  S
C1207      F1211   1.385       .  S
C1207      F1212   1.382       .  S
C1207      F1213   1.383   1_554  S
C1210      F1214   1.383       .  S
C1210      F1215   1.383       .  S
C1210      F1216   1.385       .  S
C1217      C1218   1.400       .  A
C1217      C1222   1.403       .  A
C1217      H1224   1.083       .  S
C1218      C1219   1.418       .  A
C1219      C1220   1.408       .  A
C1219      C1226   1.518       .  S
C1220      C1221   1.405       .  A
C1220      H1225   1.083       .  S
C1221      C1222   1.424       .  A
C1222      C1223   1.521       .  S
C1223      F1227   1.385       .  S
C1223      F1228   1.383       .  S
C1223      F1229   1.381       .  S
C1226      F1230   1.382       .  S
C1226      F1231   1.381       .  S
C1226      F1232   1.385       .  S
C1233      C1234   1.408       .  A
C1233      C1238   1.414       .  A
C1233      H1240   1.083       .  S
C1234      C1235   1.424       .  A
C1235      C1236   1.411       .  A
C1235      C1242   1.521       .  S
C1236      C1237   1.404       .  A
C1236      H1241   1.083       .  S
C1237      C1238   1.419       .  A
C1238      C1239   1.518       .  S
C1239      F1243   1.385       .  S
C1239      F1244   1.382       .  S
C1239      F1245   1.384       .  S
C1242      F1246   1.383       .  S
C1242      F1247   1.384       .  S
C1242      F1248   1.385       .  S
C1249      C1250   1.400       .  A
C1249      C1254   1.415       .  A
C1249      H1256   1.082       .  S
C1250      C1251   1.417       .  A
C1251      C1252   1.399       .  A
C1251      C1258   1.515       .  S
C1252      C1253   1.401       .  A
C1252      H1257   1.082       .  S
C1253      C1254   1.427       .  A
C1254      C1255   1.518       .  S
C1255      F1259   1.385       .  S
C1255      F1260   1.383       .  S
C1255      F1261   1.384       .  S
C1258      F1262   1.381       .  S
C1258      F1263   1.379       .  S
C1258      F1264   1.385       .  S
C1265      C1266   1.406       .  A
C1265      C1270   1.406       .  A
C1265      H1272   1.082       .  S
C1266      C1267   1.429       .  A
C1267      C1268   1.410       .  A
C1267      C1274   1.520       .  S
C1268      C1269   1.398       .  A
C1268      H1273   1.084       .  S
C1269      C1270   1.415       .  A
C1270      C1271   1.514       .  S
C1271      F1275   1.385       .  S
C1271      F1276   1.383       .  S
C1271      F1277   1.378       .  S
C1274      F1278   1.384       .  S
C1274      F1279   1.382       .  S
C1274      F1280   1.385       .  S
C1281      C1282   1.406       .  A
C1281      C1286   1.415       .  A
C1281      H1288   1.084       .  S
C1282      C1283   1.416       .  A
C1283      C1284   1.411       .  A
C1283      C1290   1.519       .  S
C1284      C1285   1.408       .  A
C1284      H1289   1.083       .  S
C1285      C1286   1.421       .  A
C1286      C1287   1.518       .  S
C1287      F1291   1.385       .  S
C1287      F1292   1.384       .  S
C1287      F1293   1.383       .  S
C1290      F1294   1.383       .  S
C1290      F1295   1.382       .  S
C1290      F1296   1.385       .  S
C1297      C1298   1.407       .  A
C1297      C1302   1.407   1_655  A
C1297      H1304   1.082       .  S
C1298      C1299   1.420       .  A
C1299      C1300   1.407   1_655  A
C1299      C1306   1.520       .  S
C1300      C1301   1.407       .  A
C1300      H1305   1.082       .  S
C1301      C1302   1.422       .  A
C1302      C1303   1.521       .  S
C1303      F1307   1.385       .  S
C1303      F1308   1.383       .  S
C1303      F1309   1.383       .  S
C1306      F1310   1.383       .  S
C1306      F1311   1.382       .  S
C1306      F1312   1.385       .  S
C1313      C1314   1.404       .  A
C1313      C1318   1.410       .  A
C1313      H1320   1.083       .  S
C1314      C1315   1.420       .  A
C1315      C1316   1.409       .  A
C1315      C1322   1.517       .  S
C1316      C1317   1.405       .  A
C1316      H1321   1.083       .  S
C1317      C1318   1.423       .  A
C1318      C1319   1.520       .  S
C1319      F1323   1.385       .  S
C1319      F1324   1.384       .  S
C1319      F1325   1.383       .  S
C1322      F1326   1.380       .  S
C1322      F1327   1.382       .  S
C1322      F1328   1.385       .  S
C1329      C1330   1.405       .  A
C1329      C1334   1.405       .  A
C1329      H1336   1.083       .  S
C1330      C1331   1.421       .  A
C1331      C1332   1.409       .  A
C1331      C1338   1.519       .  S
C1332      C1333   1.404       .  A
C1332      H1337   1.083       .  S
C1333      C1334   1.420       .  A
C1334      C1335   1.522       .  S
C1335      F1339   1.385       .  S
C1335      F1340   1.383       .  S
C1335      F1341   1.384       .  S
C1338      F1342   1.383       .  S
C1338      F1343   1.382       .  S
C1338      F1344   1.385       .  S
C1345      C1346   1.398       .  A
C1345      C1350   1.406       .  A
C1345      H1352   1.080       .  S
C1346      C1347   1.417       .  A
C1347      C1348   1.408       .  A
C1347      C1354   1.516       .  S
C1348      C1349   1.406       .  A
C1348      H1353   1.083       .  S
C1349      C1350   1.428       .  A
C1350      C1351   1.522   1_455  S
C1351      F1355   1.385       .  S
C1351      F1356   1.383       .  S
C1351      F1357   1.384       .  S
C1354      F1358   1.382       .  S
C1354      F1359   1.379       .  S
C1354      F1360   1.384       .  S
C1361      C1362   1.404       .  A
C1361      C1366   1.411       .  A
C1361      H1368   1.083       .  S
C1362      C1363   1.418       .  A
C1363      C1364   1.410   1_565  A
C1363      C1370   1.519       .  S
C1364      C1365   1.404       .  A
C1364      H1369   1.083       .  S
C1365      C1366   1.419   1_545  A
C1366      C1367   1.518       .  S
C1367      F1371   1.385       .  S
C1367      F1372   1.382       .  S
C1367      F1373   1.383       .  S
C1370      F1374   1.382       .  S
C1370      F1375   1.383       .  S
C1370      F1376   1.385   1_565  S
C1377      C1378   1.410       .  A
C1377      C1382   1.409       .  A
C1377      H1384   1.083       .  S
C1378      C1379   1.411       .  A
C1379      C1380   1.402       .  A
C1379      C1386   1.518       .  S
C1380      C1381   1.407       .  A
C1380      H1385   1.083       .  S
C1381      C1382   1.410       .  A
C1382      C1383   1.516       .  S
C1383      F1387   1.385       .  S
C1383      F1388   1.384       .  S
C1383      F1389   1.382       .  S
C1386      F1390   1.382       .  S
C1386      F1391   1.384       .  S
C1386      F1392   1.385       .  S
C1393      C1394   1.396       .  A
C1393      C1398   1.396       .  A
C1393      H1400   1.083       .  S
C1394      C1395   1.420       .  A
C1395      C1396   1.412       .  A
C1395      C1402   1.517       .  S
C1396      C1397   1.403       .  A
C1396      H1401   1.083       .  S
C1397      C1398   1.423       .  A
C1398      C1399   1.519       .  S
C1399      F1403   1.385       .  S
C1399      F1404   1.381       .  S
C1399      F1405   1.376       .  S
C1402      F1406   1.381       .  S
C1402      F1407   1.382       .  S
C1402      F1408   1.385       .  S
C1409      C1410   1.401       .  A
C1409      C1414   1.414       .  A
C1409      H1416   1.083       .  S
C1410      C1411   1.412       .  A
C1411      C1412   1.409       .  A
C1411      C1418   1.517       .  S
C1412      C1413   1.410       .  A
C1412      H1417   1.082       .  S
C1413      C1414   1.426       .  A
C1414      C1415   1.519       .  S
C1415      F1419   1.385       .  S
C1415      F1420   1.383       .  S
C1415      F1421   1.383       .  S
C1418      F1422   1.381       .  S
C1418      F1423   1.383       .  S
C1418      F1424   1.385       .  S
C1425      C1426   1.412   1_655  A
C1425      C1430   1.403       .  A
C1425      H1432   1.082       .  S
C1426      C1427   1.417       .  A
C1427      C1428   1.404   1_465  A
C1427      C1434   1.520   1_565  S
C1428      C1429   1.411   1_545  A
C1428      H1433   1.082       .  S
C1429      C1430   1.415       .  A
C1430      C1431   1.521       .  S
C1431      F1435   1.383       .  S
C1431      F1436   1.384       .  S
C1431      F1437   1.385       .  S
C1434      F1438   1.385       .  S
C1434      F1439   1.381   1_545  S
C1434      F1440   1.383       .  S
C1441      C1442   1.403       .  A
C1441      C1446   1.396       .  A
C1441      H1448   1.082       .  S
C1442      C1443   1.428       .  A
C1443      C1444   1.411       .  A
C1443      C1450   1.519       .  S
C1444      C1445   1.398       .  A
C1444      H1449   1.083       .  S
C1445      C1446   1.414       .  A
C1446      C1447   1.514       .  S
C1447      F1451   1.385       .  S
C1447      F1452   1.381       .  S
C1447      F1453   1.376       .  S
C1450      F1454   1.383       .  S
C1450      F1455   1.383       .  S
C1450      F1456   1.385       .  S
C1457      C1458   1.406       .  A
C1457      C1462   1.406       .  A
C1457      H1464   1.082       .  S
C1458      C1459   1.426       .  A
C1459      C1460   1.410       .  A
C1459      C1466   1.522   1_655  S
C1460      C1461   1.402       .  A
C1460      H1465   1.083       .  S
C1461      C1462   1.417       .  A
C1462      C1463   1.517       .  S
C1463      F1467   1.385       .  S
C1463      F1468   1.383       .  S
C1463      F1469   1.376       .  S
C1466      F1470   1.383       .  S
C1466      F1471   1.380       .  S
C1466      F1472   1.385       .  S
