geometry optimzed in LAMMPS
_audit_creation_date              2020-11-30 
_audit_creation_method            'lammps2cif' 
_symmetry_space_group_name_H-M    'P1' 
_symmetry_Int_Tables_number       1 
_symmetry_cell_setting            triclinic 
loop_ 
_symmetry_equiv_pos_as_xyz 
  x,y,z 
_cell_length_a                    43.48158045931774 
_cell_length_b                    43.47752934139843 
_cell_length_c                    19.769409289875966 
_cell_angle_alpha                 90.18630618306403 
_cell_angle_beta                  90.0269600534852 
_cell_angle_gamma                 89.98984809429001 
loop_ 
_atom_site_label 
_atom_site_type_symbol 
_atom_site_fract_x 
_atom_site_fract_y 
_atom_site_fract_z 
_atom_site_charge 
O1          O  0.34454419  0.64501937  0.34447990    -0.74210
O2          O  0.43553503  0.64508006  0.35047217    -0.75200
O3          O  0.39044087  0.68989021  0.31778432    -0.63810
O4          O  0.38968278  0.60007059  0.04034994    -0.72230
O5          O  0.39098560  0.58792516  0.26474548    -0.71780
O6          O  0.39333208  0.67563533  0.21021523    -0.63030
O7          O  0.43899029  0.63110458  0.24286555    -0.75540
O8          O  0.34547326  0.63252299  0.23567594    -0.74320
Cu9        Cu  0.39004468  0.64557924  0.35026295     1.04560
Cu10       Cu  0.39226383  0.63134267  0.23458895     1.04330
C11         C  0.33037464  0.63856957  0.28982853     0.91980
C12         C  0.45187494  0.63777915  0.29932648     0.91120
C13         C  0.39205908  0.69680290  0.25486634     0.83270
C14         C  0.38979629  0.57976436  0.32662417     0.89540
O15         O  0.34555190  0.87549309  0.07677353    -0.74210
O16         O  0.43657728  0.87528720  0.07196468    -0.75200
O17         O  0.39158356  0.83061880  0.10425510    -0.63810
O18         O  0.39080148  0.92039469  0.04789062    -0.72230
O19         O  0.39224178  0.93264792  0.15676798    -0.71780
O20         O  0.39342598  0.84498442  0.21189309    -0.63030
O21         O  0.43980572  0.88896401  0.17978105    -0.75540
O22         O  0.34626790  0.88855688  0.18526892    -0.74320
Cu23       Cu  0.39112494  0.87489215  0.07155763     1.04560
Cu24       Cu  0.39301373  0.88925606  0.18720063     1.04330
C25         C  0.33127501  0.88230506  0.13106964     0.91980
C26         C  0.45282291  0.88220358  0.12352647     0.91120
C27         C  0.39257527  0.82378121  0.16727605     0.83270
C28         C  0.39098226  0.94074824  0.09485416     0.89540
O29         O  0.18297918  0.64552705  0.24138696    -0.74210
O30         O  0.09191281  0.64658001  0.23776768    -0.75200
O31         O  0.13744643  0.69088536  0.26945489    -0.63810
O32         O  0.13715429  0.60096040  0.21308623    -0.72230
O33         O  0.13567124  0.58909690  0.32195548    -0.71780
O34         O  0.13587230  0.67678486  0.04375509    -0.63030
O35         O  0.08890591  0.63334277  0.01235652    -0.75540
O36         O  0.18238682  0.63268798  0.01650041    -0.74320
Cu37       Cu  0.13738677  0.64653051  0.23673438     1.04560
Cu38       Cu  0.13566276  0.63251766  0.01906055     1.04330
C39         C  0.19731350  0.63877180  0.29557679     0.91980
C40         C  0.07577653  0.64000845  0.28959352     0.91120
C41         C  0.13672689  0.69786225  0.99917981     0.83270
C42         C  0.13654385  0.58075765  0.26006054     0.89540
O43         O  0.18393856  0.87677353  0.17938772    -0.74210
O44         O  0.09287960  0.87611453  0.18377690    -0.75200
O45         O  0.13838571  0.83167514  0.15131284    -0.63810
O46         O  0.13845623  0.92147657  0.20845583    -0.72230
O47         O  0.13749168  0.93351685  0.09960662    -0.71780
O48         O  0.13559737  0.84590072  0.04389574    -0.63030
O49         O  0.08967846  0.89015134  0.07637457    -0.75540
O50         O  0.18320456  0.88909026  0.07064744    -0.74320
Cu51       Cu  0.13840212  0.87596198  0.18441079     1.04560
Cu52       Cu  0.13642532  0.89013762  0.06887223     1.04330
C53         C  0.19820536  0.88312453  0.12491960     0.91980
C54         C  0.07664479  0.88320869  0.13238697     0.91120
C55         C  0.13692752  0.82476147  0.08827936     0.83270
C56         C  0.13853364  0.94172709  0.16157705     0.89540
O57         O  0.39269462  0.43550358  0.09500558    -0.74210
O58         O  0.39180991  0.34200444  0.10154328    -0.75200
O59         O  0.43617753  0.38767046  0.07283018    -0.63810
O60         O  0.34844722  0.38968765  0.12726650    -0.72230
O61         O  0.33434924  0.38668495  0.01966886    -0.71780
O62         O  0.42421552  0.38626924  0.96385488    -0.63030
O63         O  0.37947225  0.34092514  0.99272850    -0.75540
O64         O  0.37887049  0.43196750  0.98738085    -0.74320
Cu65       Cu  0.39274161  0.38878858  0.10293514     1.04560
Cu66       Cu  0.37867964  0.38645186  0.98723266     1.04330
C67         C  0.38585377  0.44835936  0.03875382     0.91980
C68         C  0.38592709  0.32682838  0.04732287     0.91120
C69         C  0.44443324  0.38640319  0.01096669     0.83270
C70         C  0.32735517  0.38837994  0.08258404     0.89540
O71         O  0.13470465  0.43614654  0.15691182    -0.74210
O72         O  0.13611356  0.34259350  0.15172165    -0.75200
O73         O  0.09149113  0.38830145  0.17989349    -0.63810
O74         O  0.17921515  0.39007505  0.12522386    -0.72230
O75         O  0.19336708  0.38865248  0.23293535    -0.71780
O76         O  0.10353936  0.38710938  0.28880585    -0.63030
O77         O  0.14898353  0.34225899  0.26026524    -0.75540
O78         O  0.14802915  0.43323415  0.26490376    -0.74320
Cu79       Cu  0.13493172  0.38933666  0.14964694     1.04560
Cu80       Cu  0.14904364  0.38782076  0.26538161     1.04330
C81         C  0.14089237  0.44929931  0.21338625     0.91980
C82         C  0.14245933  0.32779520  0.20597068     0.91120
C83         C  0.08327711  0.38720874  0.24179064     0.83270
C84         C  0.20032064  0.38946644  0.16993554     0.89540
O85         O  0.39362320  0.08509452  0.99343630    -0.74210
O86         O  0.39279322  0.17862320  0.32096871    -0.75200
O87         O  0.43714668  0.13282113  0.01625398    -0.63810
O88         O  0.34946128  0.13109519  0.29457184    -0.72230
O89         O  0.33525088  0.13408591  0.06873556    -0.71780
O90         O  0.42512299  0.13398773  0.12517236    -0.63030
O91         O  0.38048593  0.17955886  0.09644942    -0.75540
O92         O  0.37960500  0.08850039  0.10092411    -0.74320
Cu93       Cu  0.39372702  0.13183574  0.31921388     1.04560
Cu94       Cu  0.37957280  0.13402772  0.10150193     1.04330
C95         C  0.38665872  0.07216501  0.04951784     0.91980
C96         C  0.38684216  0.19372738  0.04191023     0.91120
C97         C  0.44537772  0.13390506  0.07816622     0.83270
C98         C  0.32832232  0.13256474  0.00574456     0.89540
O99         O  0.13685516  0.17997070  0.26724462    -0.74210
O100        O  0.13619672  0.08644133  0.26264401    -0.75200
O101        O  0.18025567  0.13278740  0.29462558    -0.63810
O102        O  0.09264996  0.13400604  0.23878810    -0.72230
O103        O  0.10487631  0.13504545  0.12998651    -0.71780
O104        O  0.19463075  0.13420019  0.18708614    -0.63030
O105        O  0.14986623  0.08925663  0.15489990    -0.75540
O106        O  0.14991304  0.18028181  0.15884290    -0.74320
Cu107      Cu  0.13601603  0.13324522  0.26958955     1.04560
Cu108      Cu  0.15037351  0.13469122  0.15403582     1.04330
C109        C  0.14316654  0.19475966  0.21298404     0.91980
C110        C  0.14296247  0.07321262  0.20658652     0.91120
C111        C  0.20145492  0.13336705  0.25017089     0.83270
C112        C  0.08453664  0.13504687  0.17680701     0.89540
O113        O  0.68312976  0.37525019  0.34714454    -0.74210
O114        O  0.59206808  0.37512808  0.35155977    -0.75200
O115        O  0.63710412  0.33046423  0.31890014    -0.63810
O116        O  0.63788345  0.42018086  0.04319563    -0.72230
O117        O  0.63653716  0.43237620  0.26778036    -0.71780
O118        O  0.63530692  0.34477276  0.21142090    -0.63030
O119        O  0.58898674  0.38877332  0.24388865    -0.75540
O120        O  0.68243922  0.38826268  0.23880219    -0.74320
Cu121      Cu  0.63754040  0.37470088  0.35220492     1.04560
Cu122      Cu  0.63573933  0.38901858  0.23671787     1.04330
C123        C  0.69741650  0.38200379  0.29292156     0.91980
C124        C  0.57589796  0.38201542  0.29994996     0.91120
C125        C  0.63615042  0.32360129  0.25579854     0.83270
C126        C  0.63779700  0.44049848  0.32979400     0.89540
O127        O  0.59307852  0.14513520  0.07163483    -0.74210
O128        O  0.68412577  0.14471642  0.07582288    -0.75200
O129        O  0.63874156  0.09990013  0.04677748    -0.63810
O130        O  0.63842790  0.18967591  0.10406232    -0.72230
O131        O  0.63586549  0.17545662  0.21149791    -0.71780
O132        O  0.63785491  0.08781551  0.15560041    -0.63030
O133        O  0.68353444  0.13230858  0.18451120    -0.75540
O134        O  0.58998842  0.13113159  0.17906450    -0.74320
Cu135      Cu  0.63858326  0.14540455  0.07090820     1.04560
Cu136      Cu  0.63675357  0.13120239  0.18643431     1.04330
C137        C  0.57689734  0.13804561  0.12306708     0.91980
C138        C  0.69846639  0.13834047  0.13021466     0.91120
C139        C  0.63885182  0.07962716  0.09360815     0.83270
C140        C  0.63701125  0.19659959  0.16709271     0.89540
O141        O  0.93552573  0.37607754  0.23715340    -0.74210
O142        O  0.84455790  0.37643404  0.24326172    -0.75200
O143        O  0.88976556  0.42132311  0.21420963    -0.63810
O144        O  0.89036403  0.33141390  0.26974367    -0.72230
O145        O  0.89343258  0.34562210  0.04399339    -0.71780
O146        O  0.89110505  0.43335793  0.32320428    -0.63030
O147        O  0.84559883  0.38874642  0.01884165    -0.75540
O148        O  0.93908480  0.39002834  0.34476350    -0.74320
Cu149      Cu  0.89004315  0.37576474  0.23741498     1.04560
Cu150      Cu  0.89237800  0.38990488  0.01980800     1.04330
C151        C  0.95191950  0.38320692  0.28835569     0.91980
C152        C  0.83045260  0.38275939  0.29803074     0.91120
C153        C  0.88988621  0.44158565  0.26137154     0.83270
C154        C  0.89207953  0.32447741  0.99931104     0.89540
O155        O  0.93688251  0.14609021  0.18250500    -0.74210
O156        O  0.84585866  0.14591213  0.17785701    -0.75200
O157        O  0.89111136  0.10099796  0.20669277    -0.63810
O158        O  0.89185990  0.19075709  0.15022821    -0.72230
O159        O  0.89360503  0.17635013  0.04260874    -0.71780
O160        O  0.89249647  0.08871744  0.09783146    -0.63030
O161        O  0.84648051  0.13281136  0.06937900    -0.75540
O162        O  0.94004176  0.13240000  0.07469528    -0.74320
Cu163      Cu  0.89143024  0.14649477  0.18298440     1.04560
Cu164      Cu  0.89323362  0.13209887  0.06735686     1.04330
C165        C  0.95309749  0.13918379  0.13092038     0.91980
C166        C  0.83153540  0.13909224  0.12360076     0.91120
C167        C  0.89125595  0.08063254  0.15975236     0.83270
C168        C  0.89278019  0.19756699  0.08718978     0.89540
O169        O  0.63549767  0.58512263  0.09829150    -0.74210
O170        O  0.63548974  0.67869763  0.10284241    -0.75200
O171        O  0.59151579  0.63229634  0.07494928    -0.63810
O172        O  0.67926070  0.63185294  0.12970412    -0.72230
O173        O  0.69337978  0.63338814  0.02200723    -0.71780
O174        O  0.60350264  0.63346077  0.96604436    -0.63030
O175        O  0.64824309  0.67906738  0.99425953    -0.75540
O176        O  0.64890847  0.58804671  0.99040852    -0.74320
Cu177      Cu  0.63497132  0.63193801  0.10522002     1.04560
Cu178      Cu  0.64904524  0.63349007  0.98950921     1.04330
C179        C  0.64222210  0.57194537  0.04214737     0.91980
C180        C  0.64162168  0.69351341  0.04851083     0.91120
C181        C  0.58325388  0.63319486  0.01305201     0.83270
C182        C  0.70034972  0.63264797  0.08501716     0.89540
O183        O  0.89269958  0.58599461  0.16063277    -0.74210
O184        O  0.89176616  0.67947187  0.15436297    -0.75200
O185        O  0.93613716  0.63384845  0.18321048    -0.63810
O186        O  0.84844857  0.63184767  0.12831550    -0.72230
O187        O  0.83429093  0.63481920  0.23585292    -0.71780
O188        O  0.92410879  0.63517919  0.29213380    -0.63030
O189        O  0.87938313  0.68052285  0.26313229    -0.75540
O190        O  0.87879439  0.58943063  0.26819284    -0.74320
Cu191      Cu  0.89272581  0.63270967  0.15286753     1.04560
Cu192      Cu  0.87859497  0.63498267  0.26850941     1.04330
C193        C  0.88581680  0.57308207  0.21677667     0.91980
C194        C  0.88584634  0.69463165  0.20856974     0.91120
C195        C  0.94434965  0.63515438  0.24511586     0.83270
C196        C  0.82733386  0.63321965  0.17289498     0.89540
O197        O  0.63607066  0.93496804  0.99202492    -0.74210
O198        O  0.63632962  0.84140917  0.32044459    -0.75200
O199        O  0.59233203  0.88755416  0.01562591    -0.63810
O200        O  0.67995742  0.88845405  0.29329750    -0.72230
O201        O  0.69431490  0.88696452  0.06753756    -0.71780
O202        O  0.60456848  0.88635200  0.12443960    -0.63030
O203        O  0.64944381  0.84099250  0.09549745    -0.75540
O204        O  0.64969086  0.93202393  0.09980811    -0.74320
Cu205      Cu  0.63570230  0.88815672  0.31824437     1.04560
Cu206      Cu  0.65005799  0.88658157  0.10048233     1.04330
C207        C  0.64286547  0.94813398  0.04815285     0.91980
C208        C  0.64258001  0.82656356  0.04135084     0.91120
C209        C  0.58422494  0.88645870  0.07758947     0.83270
C210        C  0.70115143  0.88782500  0.00447668     0.89540
O211        O  0.89340572  0.93636730  0.26169395    -0.74210
O212        O  0.89253630  0.84285997  0.26789151    -0.75200
O213        O  0.93691329  0.88859665  0.23919462    -0.63810
O214        O  0.84919205  0.89041538  0.29394380    -0.72230
O215        O  0.83501133  0.88735034  0.18641051    -0.71780
O216        O  0.92488888  0.88735547  0.13025430    -0.63030
O217        O  0.88024276  0.84184515  0.15904596    -0.75540
O218        O  0.87940104  0.93289825  0.15417675    -0.74320
Cu219      Cu  0.89347811  0.88963885  0.26944531     1.04560
Cu220      Cu  0.87934014  0.88736759  0.15379150     1.04330
C221        C  0.88649164  0.94926151  0.20552758     0.91980
C222        C  0.88659666  0.82771846  0.21365574     0.91120
C223        C  0.94514387  0.88745736  0.17730074     0.83270
C224        C  0.82806330  0.88889244  0.24937355     0.89540
C225        C  0.74109899  0.88260050  0.24709624    -0.14620
C226        C  0.73363210  0.88810308  0.31536636     0.07530
C227        C  0.75741519  0.89410583  0.02808949    -0.14620
C228        C  0.78805142  0.89438020  0.33995073    -0.14620
C229        C  0.79554193  0.88880152  0.27169890     0.07530
C230        C  0.77174390  0.88279722  0.22564521    -0.14620
H231        H  0.72327181  0.87780854  0.21026285     0.11520
H232        H  0.75222396  0.89906033  0.08047263     0.11520
H233        H  0.80585540  0.89915697  0.04351220     0.11520
H234        H  0.77691542  0.87781481  0.17326851     0.11520
C235        C  0.88657764  0.74469091  0.27139968    -0.14620
C236        C  0.88658239  0.72867410  0.20944368     0.07530
C237        C  0.88714434  0.74550836  0.14919890    -0.14620
C238        C  0.88718313  0.77765756  0.15087207    -0.14620
C239        C  0.88705530  0.79367405  0.21282342     0.07530
C240        C  0.88700572  0.77683947  0.27307762    -0.14620
H241        H  0.88632394  0.73228910  0.31862395     0.11520
H242        H  0.88719560  0.73379668  0.10096358     0.11520
H243        H  0.88741394  0.79006187  0.10364959     0.11520
H244        H  0.88687466  0.78855692  0.32130549     0.11520
C245        C  0.64180718  0.74475039  0.10715591    -0.14620
C246        C  0.64110739  0.72754590  0.04717558     0.07530
C247        C  0.64038108  0.74317133  0.98499502    -0.14620
C248        C  0.64049388  0.77531233  0.98281468    -0.14620
C249        C  0.64174887  0.79252271  0.04276302     0.07530
C250        C  0.64232825  0.77688658  0.10495689    -0.14620
H251        H  0.64247991  0.73333509  0.15555576     0.11520
H252        H  0.63957633  0.73045854  0.93800157     0.11520
H253        H  0.63991445  0.78671188  0.93439262     0.11520
H254        H  0.64317245  0.78957614  0.15197437     0.11520
C255        C  0.74033578  0.63843266  0.17546965    -0.14620
C256        C  0.73285822  0.63278118  0.10725070     0.07530
C257        C  0.75665507  0.62711518  0.06107023    -0.14620
C258        C  0.78731816  0.62727932  0.08241275    -0.14620
C259        C  0.79481000  0.63298383  0.15062899     0.07530
C260        C  0.77099820  0.63867245  0.19678562    -0.14620
H261        H  0.72249626  0.64299329  0.21238233     0.11520
H262        H  0.75146626  0.62210087  0.00869684     0.11520
H263        H  0.80514182  0.62272925  0.04545962     0.11520
H264        H  0.77615846  0.64370796  0.24916020     0.11520
C265        C  0.88113199  0.99546358  0.13303305    -0.14620
C266        C  0.88695696  0.98316313  0.19739067     0.07530
C267        C  0.89363170  0.00343701  0.25113734    -0.14620
C268        C  0.89470627  0.03539192  0.24004568    -0.14620
C269        C  0.88943890  0.04734356  0.17495700     0.07530
C270        C  0.88243770  0.02694004  0.12199950    -0.14620
H271        H  0.87581278  0.98071420  0.09035238     0.11520
H272        H  0.89820116  0.99462994  0.30130437     0.11520
H273        H  0.90010414  0.05062275  0.28183990     0.11520
H274        H  0.87788976  0.03526899  0.07139823     0.11520
C275        C  0.89341646  0.48696091  0.18150100    -0.14620
C276        C  0.88818736  0.47491892  0.24650800     0.07530
C277        C  0.88147596  0.49527793  0.29972871    -0.14620
C278        C  0.88040545  0.52679252  0.28901087    -0.14620
C279        C  0.88616930  0.53916792  0.22471382     0.07530
C280        C  0.89256363  0.51894306  0.17072364    -0.14620
H281        H  0.89861853  0.47177308  0.13952002     0.11520
H282        H  0.87699030  0.48688558  0.35029261     0.11520
H283        H  0.87529565  0.54150897  0.33186098     0.11520
H284        H  0.89707338  0.52780730  0.12059208     0.11520
C285        C  0.88679036  0.26805281  0.97534363    -0.14620
C286        C  0.89246507  0.29195338  0.02145706     0.07530
C287        C  0.89826460  0.28455709  0.08959759    -0.14620
C288        C  0.89847818  0.25392259  0.11092727    -0.14620
C289        C  0.89276687  0.23003973  0.06483030     0.07530
C290        C  0.88708697  0.23740929  0.99665074    -0.14620
H291        H  0.88168028  0.27313332  0.25637462     0.11520
H292        H  0.90282199  0.30243924  0.12652754     0.11520
H293        H  0.90354135  0.24882206  0.16324526     0.11520
H294        H  0.88249761  0.21950295  0.95979461     0.11520
C295        C  0.63477917  0.03416148  0.01340314    -0.14620
C296        C  0.64063945  0.04632235  0.07823773     0.07530
C297        C  0.64808417  0.02610326  0.13093476    -0.14620
C298        C  0.64916020  0.99459756  0.11998559    -0.14620
C299        C  0.64266988  0.98206925  0.05596799     0.07530
C300        C  0.63564577  0.00215830  0.00238488    -0.14620
H301        H  0.62903999  0.04926075  0.97180934     0.11520
H302        H  0.65310536  0.03459580  0.18131341     0.11520
H303        H  0.65481936  0.98001091  0.16252062     0.11520
H304        H  0.63059949  0.99317430  0.95246031     0.11520
C305        C  0.74959725  0.13801868  0.18906801    -0.14620
C306        C  0.73251058  0.13792373  0.12901356     0.07530
C307        C  0.74827131  0.13774237  0.06687373    -0.14620
C308        C  0.78041228  0.13775794  0.06481646    -0.14620
C309        C  0.79749728  0.13836423  0.12486246     0.07530
C310        C  0.78173932  0.13843902  0.18700651    -0.14620
H311        H  0.73808645  0.13819000  0.23743972     0.11520
H312        H  0.73566871  0.13746763  0.01979756     0.11520
H313        H  0.79191803  0.13765733  0.01643752     0.11520
H314        H  0.79434476  0.13873137  0.23407852     0.11520
C315        C  0.64854173  0.52547429  0.97036744    -0.14620
C316        C  0.64204443  0.53800822  0.03436569     0.07530
C317        C  0.63492032  0.51792849  0.08788606    -0.14620
C318        C  0.63392025  0.48593336  0.41012958    -0.14620
C319        C  0.63973155  0.47377948  0.34527952     0.07530
C320        C  0.64731954  0.49398128  0.95934148    -0.14620
H321        H  0.65428902  0.54005002  0.92788633     0.11520
H322        H  0.62986672  0.52691652  0.13779497     0.11520
H323        H  0.62809305  0.47084022  0.45165994     0.11520
H324        H  0.65233630  0.48548267  0.90897326     0.11520
C325        C  0.74738322  0.38184348  0.35591709    -0.14620
C326        C  0.73145128  0.38267817  0.29397618     0.07530
C327        C  0.74836156  0.38406506  0.23379853    -0.14620
C328        C  0.78049291  0.38411893  0.23547009    -0.14620
C329        C  0.79642585  0.38318373  0.29737388     0.07530
C330        C  0.77953282  0.38229670  0.35761707    -0.14620
H331        H  0.73492332  0.38085567  0.06976705     0.11520
H332        H  0.73672903  0.38484781  0.18556783     0.11520
H333        H  0.79295189  0.38509307  0.18828090     0.11520
H334        H  0.79120358  0.38144615  0.07246350     0.11520
C335        C  0.64164895  0.25297597  0.14335089    -0.14620
C336        C  0.63668362  0.22912338  0.18959591     0.07530
C337        C  0.63153243  0.23659029  0.25802436    -0.14620
C338        C  0.63118956  0.26727134  0.27943516    -0.14620
C339        C  0.63617649  0.29110911  0.23319187     0.07530
C340        C  0.64123224  0.28365993  0.16474157    -0.14620
H341        H  0.64631487  0.24779960  0.09086486     0.11520
H342        H  0.62754157  0.21874011  0.29508032     0.11520
H343        H  0.62656227  0.27246995  0.33193009     0.11520
H344        H  0.64525353  0.30152670  0.12773843     0.11520
C345        C  0.00723002  0.13209501  0.08526083    -0.14620
C346        C  0.98701881  0.13886240  0.13894185     0.07530
C347        C  0.99940679  0.14499454  0.20322480    -0.14620
C348        C  0.03089300  0.14388365  0.21427837    -0.14620
C349        C  0.05123886  0.13676137  0.16143046     0.07530
C350        C  0.03921096  0.13119837  0.09638721    -0.14620
H351        H  0.99835820  0.12730568  0.03514677     0.11520
H352        H  0.98472273  0.15041914  0.24586438     0.11520
H353        H  0.03927096  0.14865586  0.26483959     0.11520
H354        H  0.05440107  0.12569774  0.05467563     0.11520
C355        C  0.49897169  0.14262587  0.04028556    -0.14620
C356        C  0.47870946  0.13557675  0.09324319     0.07530
C357        C  0.49084697  0.13005794  0.15812080    -0.14620
C358        C  0.52284451  0.13094644  0.16898535    -0.14620
C359        C  0.54296946  0.13766713  0.11521383     0.07530
C360        C  0.53048165  0.14373286  0.05108915    -0.14620
H361        H  0.49050725  0.14735708  0.98984325     0.11520
H362        H  0.47572710  0.12460820  0.19990610     0.11520
H363        H  0.53179589  0.12620783  0.21898723     0.11520
H364        H  0.54510476  0.14911112  0.00840071     0.11520
C365        C  0.28836085  0.12691935  0.24838120    -0.14620
C366        C  0.29581306  0.13258759  0.31663492     0.07530
C367        C  0.27198858  0.13858281  0.02924420    -0.14620
C368        C  0.24135408  0.13869637  0.34100755    -0.14620
C369        C  0.23392434  0.13311122  0.27273337     0.07530
C370        C  0.25773344  0.12710816  0.22678979    -0.14620
H371        H  0.30618897  0.12213878  0.21157790     0.11520
H372        H  0.27712823  0.14362306  0.08162208     0.11520
H373        H  0.22350492  0.14349767  0.04441731     0.11520
H374        H  0.25257357  0.12210147  0.17440303     0.11520
C375        C  0.02944159  0.37994403  0.20361686    -0.14620
C376        C  0.04996097  0.38571453  0.25697348     0.07530
C377        C  0.03810287  0.39018065  0.32252977    -0.14620
C378        C  0.00615368  0.38936478  0.33381991    -0.14620
C379        C  0.98578562  0.38376906  0.27977750     0.07530
C380        C  0.99796106  0.37891686  0.21482346    -0.14620
H381        H  0.03767617  0.37611503  0.15259713     0.11520
H382        H  0.05341954  0.39469153  0.36460557     0.11520
H383        H  0.99742703  0.39320708  0.38440985     0.11520
H384        H  0.98311164  0.37450399  0.17188326     0.11520
C385        C  0.14182066  0.27812709  0.26942458    -0.14620
C386        C  0.14216255  0.29376289  0.20724580     0.07530
C387        C  0.14243690  0.27657008  0.14723253    -0.14620
C388        C  0.14283827  0.24443113  0.14938917    -0.14620
C389        C  0.14255360  0.22879385  0.21158050     0.07530
C390        C  0.14180791  0.24599242  0.27157035    -0.14620
H391        H  0.14138188  0.29082537  0.31645280     0.11520
H392        H  0.14275694  0.28799444  0.09883310     0.11520
H393        H  0.14327097  0.23173573  0.10235824     0.11520
H394        H  0.14153001  0.23458266  0.31998749     0.11520
C395        C  0.49795467  0.37739724  0.04903849    -0.14620
C396        C  0.47774555  0.38458053  0.99603442     0.07530
C397        C  0.48991063  0.39011414  0.26455781    -0.14620
C398        C  0.52190033  0.38915622  0.25381811    -0.14620
C399        C  0.54198145  0.38235312  0.30765108     0.07530
C400        C  0.52946277  0.37622127  0.03835592    -0.14620
H401        H  0.48944887  0.37263508  0.09941567     0.11520
H402        H  0.47482031  0.39565652  0.22274525     0.11520
H403        H  0.53088177  0.39393917  0.20388215     0.11520
H404        H  0.54405884  0.37075896  0.08107071     0.11520
C405        C  0.38673520  0.27679259  0.98442002    -0.14620
C406        C  0.38670859  0.29278152  0.04641474     0.07530
C407        C  0.38728979  0.27591430  0.10661702    -0.14620
C408        C  0.38737416  0.24376112  0.10485547    -0.14620
C409        C  0.38727481  0.22777599  0.04285851     0.07530
C410        C  0.38720845  0.24464614  0.98265528    -0.14620
H411        H  0.38647043  0.28921569  0.93722201     0.11520
H412        H  0.38731981  0.28760169  0.15488047     0.11520
H413        H  0.38761388  0.23132840  0.15204270     0.11520
H414        H  0.38709651  0.23295799  0.93439275     0.11520
C415        C  0.28731182  0.39459658  0.17286248    -0.14620
C416        C  0.29481448  0.38885345  0.10467797     0.07530
C417        C  0.27099198  0.38341064  0.05836531    -0.14620
C418        C  0.24031703  0.38385299  0.07952372    -0.14620
C419        C  0.23283075  0.38946714  0.14774109     0.07530
C420        C  0.25663449  0.39496258  0.19404822    -0.14620
H421        H  0.30514105  0.39898558  0.20992885     0.11520
H422        H  0.27615282  0.37838171  0.00599902     0.11520
H423        H  0.22247670  0.37941461  0.04250943     0.11520
H424        H  0.25144487  0.39992979  0.24643135     0.11520
C425        C  0.14795649  0.99517725  0.12411912    -0.14620
C426        C  0.14038352  0.97503042  0.17684099     0.07530
C427        C  0.13450303  0.98725707  0.24159148    -0.14620
C428        C  0.13548086  0.01926246  0.25250018    -0.14620
C429        C  0.14264135  0.03927939  0.19889231     0.07530
C430        C  0.14914567  0.02668170  0.13496283    -0.14620
H431        H  0.15300367  0.98662757  0.07380741     0.11520
H432        H  0.12866989  0.97220968  0.28319790     0.11520
H433        H  0.13041949  0.02830467  0.30235839     0.11520
H434        H  0.15490802  0.04121224  0.09241626     0.11520
C435        C  0.02257084  0.89026443  0.08648870    -0.14620
C436        C  0.04272201  0.88358669  0.14028310     0.07530
C437        C  0.03026671  0.87759725  0.20444563    -0.14620
C438        C  0.99875830  0.87874173  0.21525701    -0.14620
C439        C  0.97847271  0.88574852  0.16226543     0.07530
C440        C  0.99058152  0.89118617  0.09735739    -0.14620
H441        H  0.03149683  0.89494801  0.03645984     0.11520
H442        H  0.04491541  0.87225926  0.24714951     0.11520
H443        H  0.99031268  0.87407358  0.26572367     0.11520
H444        H  0.97544467  0.89660149  0.05554533     0.11520
C445        C  0.13951840  0.52669844  0.29908743    -0.14620
C446        C  0.13721674  0.54735486  0.24493681     0.07530
C447        C  0.13584533  0.53555288  0.17861015    -0.14620
C448        C  0.13678632  0.50357409  0.16720767    -0.14620
C449        C  0.13942599  0.48314225  0.22197110     0.07530
C450        C  0.14066650  0.49522358  0.28781565    -0.14620
H451        H  0.14069713  0.53481087  0.35079718     0.11520
H452        H  0.13398136  0.55097607  0.13594618     0.11520
H453        H  0.13566064  0.49487056  0.11598423     0.11520
H454        H  0.14247922  0.48026663  0.33129810     0.11520
C455        C  0.02182655  0.63271685  0.33574626    -0.14620
C456        C  0.04185055  0.63981570  0.28203906     0.07530
C457        C  0.02927327  0.64615746  0.21812869    -0.14620
C458        C  0.99777575  0.64479193  0.20737734    -0.14620
C459        C  0.97763543  0.63721938  0.26019340     0.07530
C460        C  0.98984263  0.63157812  0.32494498    -0.14620
H461        H  0.03085336  0.62776851  0.05225274     0.11520
H462        H  0.04381977  0.65187085  0.17552507     0.11520
H463        H  0.98922475  0.64968237  0.15707560     0.11520
H464        H  0.97479884  0.62577057  0.36662916     0.11520
C465        C  0.14258749  0.73780134  0.08987405    -0.14620
C466        C  0.13688620  0.73035976  0.02164460     0.07530
C467        C  0.13107400  0.75416754  0.97576299    -0.14620
C468        C  0.13111230  0.78481156  0.99743117    -0.14620
C469        C  0.13683013  0.79226309  0.06567613     0.07530
C470        C  0.14269791  0.76844228  0.11151413    -0.14620
H471        H  0.14725935  0.71994836  0.12655524     0.11520
H472        H  0.12600870  0.74899862  0.92340196     0.11520
H473        H  0.12643489  0.80264980  0.96072182     0.11520
H474        H  0.14776743  0.77358009  0.16388499     0.11520
C475        C  0.39472633  0.98603398  0.01474938    -0.14620
C476        C  0.38920644  0.97404324  0.07969133     0.07530
C477        C  0.38205387  0.99441822  0.13258897    -0.14620
C478        C  0.38087656  0.02590787  0.12166839    -0.14620
C479        C  0.38698438  0.03825131  0.05748860     0.07530
C480        C  0.39377764  0.01800339  0.00377285    -0.14620
H481        H  0.40024419  0.97082337  0.97300247     0.11520
H482        H  0.37730752  0.98605593  0.18306718     0.11520
H483        H  0.37543958  0.04063184  0.16431219     0.11520
H484        H  0.39854909  0.02684048  0.95373117     0.11520
C485        C  0.53893727  0.89023535  0.15801257    -0.14620
C486        C  0.55093187  0.88477350  0.09292451     0.07530
C487        C  0.53056376  0.87772513  0.04003380    -0.14620
C488        C  0.49908573  0.87656690  0.05110760    -0.14620
C489        C  0.48673335  0.88258113  0.11545149     0.07530
C490        C  0.50696664  0.88929711  0.16915706    -0.14620
H491        H  0.55414658  0.89567625  0.19975557     0.11520
H492        H  0.53891934  0.87302935  0.98943752     0.11520
H493        H  0.48437976  0.87119335  0.00844661     0.11520
H494        H  0.49811963  0.89400382  0.21931194     0.11520
C495        C  0.28140113  0.88274297  0.06781530    -0.14620
C496        C  0.29723461  0.88306075  0.12990018     0.07530
C497        C  0.28022086  0.88395863  0.18999775    -0.14620
C498        C  0.24807874  0.88400947  0.18806177    -0.14620
C499        C  0.23224609  0.88356904  0.12598696     0.07530
C500        C  0.24925728  0.88319549  0.06586899    -0.14620
H501        H  0.29394429  0.88219955  0.02069780     0.11520
H502        H  0.29178269  0.88428763  0.23833447     0.11520
H503        H  0.23553171  0.88453104  0.23517643     0.11520
H504        H  0.23768392  0.88279037  0.01754822     0.11520
C505        C  0.39323488  0.53452554  0.07352933    -0.14620
C506        C  0.38815083  0.54645670  0.34168635     0.07530
C507        C  0.38164497  0.52601073  0.28850585    -0.14620
C508        C  0.38061467  0.49451773  0.29943966    -0.14620
C509        C  0.38620882  0.48225283  0.03059288     0.07530
C510        C  0.39241890  0.50256178  0.08453232    -0.14620
H511        H  0.39828502  0.54978679  0.11547859     0.11520
H512        H  0.37728469  0.53431571  0.23781044     0.11520
H513        H  0.37566004  0.47973116  0.25661074     0.11520
H514        H  0.39680297  0.49377757  0.13479468     0.11520
C515        C  0.50614626  0.63189287  0.25387630    -0.14620
C516        C  0.48572756  0.63675580  0.30811765     0.07530
C517        C  0.49783281  0.64044320  0.04016687    -0.14620
C518        C  0.52930052  0.63920488  0.05151485    -0.14620
C519        C  0.54989803  0.63438730  0.99788506     0.07530
C520        C  0.53809195  0.63087982  0.26531730    -0.14620
H521        H  0.49746120  0.62888182  0.20298815     0.11520
H522        H  0.48292905  0.64417351  0.08328686     0.11520
H523        H  0.53746447  0.64223902  0.10283779     0.11520
H524        H  0.55345966  0.62709260  0.22303024     0.11520
C525        C  0.27933659  0.63782647  0.23048691    -0.14620
C526        C  0.29633326  0.63800190  0.29067122     0.07530
C527        C  0.28048294  0.63785013  0.35269082    -0.14620
C528        C  0.24835189  0.63766945  0.02119234    -0.14620
C529        C  0.23134651  0.63803283  0.29437760     0.07530
C530        C  0.24718162  0.63804535  0.23232935    -0.14620
H531        H  0.29092481  0.63793260  0.18220703     0.11520
H532        H  0.29300681  0.63777380  0.06653334     0.11520
H533        H  0.23678625  0.63765599  0.06950169     0.11520
H534        H  0.23462866  0.63815734  0.18519131     0.11520
C535        C  0.39816030  0.76742366  0.14331685    -0.14620
C536        C  0.39262028  0.79128954  0.18955643     0.07530
C537        C  0.38716086  0.78387980  0.25778317    -0.14620
C538        C  0.38689876  0.75321960  0.27897952    -0.14620
C539        C  0.39240250  0.72933525  0.23273115     0.07530
C540        C  0.39797965  0.73676717  0.16453809    -0.14620
H541        H  0.40307473  0.77256408  0.09097146     0.11520
H542        H  0.38271007  0.80176554  0.29476391     0.11520
H543        H  0.38193380  0.74810436  0.33131107     0.11520
H544        H  0.40239329  0.71889971  0.12749561     0.11520
O545        O  0.34454419  0.64501937  0.67781324    -0.74210
O546        O  0.43553503  0.64508006  0.68380551    -0.75200
O547        O  0.39044087  0.68989021  0.65111766    -0.63810
O548        O  0.38968278  0.60007058  0.37368326    -0.72230
O549        O  0.39098559  0.58792516  0.59807881    -0.71780
O550        O  0.39333208  0.67563533  0.54354856    -0.63030
O551        O  0.43899029  0.63110458  0.57619889    -0.75540
O552        O  0.34547326  0.63252299  0.56900928    -0.74320
Cu553      Cu  0.39004468  0.64557924  0.68359628     1.04560
Cu554      Cu  0.39226383  0.63134267  0.56792228     1.04330
C555        C  0.33037464  0.63856957  0.62316186     0.91980
C556        C  0.45187493  0.63777915  0.63265981     0.91120
C557        C  0.39205908  0.69680290  0.58819967     0.83270
C558        C  0.38979628  0.57976436  0.65995751     0.89540
O559        O  0.34555189  0.87549309  0.41010685    -0.74210
O560        O  0.43657728  0.87528720  0.40529799    -0.75200
O561        O  0.39158355  0.83061880  0.43758842    -0.63810
O562        O  0.39080147  0.92039469  0.38122394    -0.72230
O563        O  0.39224178  0.93264791  0.49010129    -0.71780
O564        O  0.39342598  0.84498442  0.54522640    -0.63030
O565        O  0.43980572  0.88896401  0.51311436    -0.75540
O566        O  0.34626790  0.88855688  0.51860224    -0.74320
Cu567      Cu  0.39112493  0.87489215  0.40489094     1.04560
Cu568      Cu  0.39301373  0.88925606  0.52053395     1.04330
C569        C  0.33127500  0.88230505  0.46440296     0.91980
C570        C  0.45282290  0.88220358  0.45685978     0.91120
C571        C  0.39257527  0.82378121  0.50060937     0.83270
C572        C  0.39098225  0.94074824  0.42818748     0.89540
O573        O  0.18297918  0.64552705  0.57472030    -0.74210
O574        O  0.09191281  0.64658001  0.57110102    -0.75200
O575        O  0.13744643  0.69088536  0.60278822    -0.63810
O576        O  0.13715429  0.60096040  0.54641956    -0.72230
O577        O  0.13567124  0.58909689  0.65528881    -0.71780
O578        O  0.13587231  0.67678486  0.37708842    -0.63030
O579        O  0.08890591  0.63334277  0.34568985    -0.75540
O580        O  0.18238682  0.63268798  0.34983374    -0.74320
Cu581      Cu  0.13738677  0.64653051  0.57006771     1.04560
Cu582      Cu  0.13566276  0.63251766  0.35239388     1.04330
C583        C  0.19731350  0.63877180  0.62891012     0.91980
C584        C  0.07577652  0.64000845  0.62292685     0.91120
C585        C  0.13672690  0.69786225  0.33251315     0.83270
C586        C  0.13654385  0.58075765  0.59339388     0.89540
O587        O  0.18393856  0.87677353  0.51272105    -0.74210
O588        O  0.09287960  0.87611453  0.51711022    -0.75200
O589        O  0.13838571  0.83167514  0.48464617    -0.63810
O590        O  0.13845622  0.92147657  0.54178916    -0.72230
O591        O  0.13749167  0.93351685  0.43293995    -0.71780
O592        O  0.13559736  0.84590072  0.37722907    -0.63030
O593        O  0.08967846  0.89015134  0.40970790    -0.75540
O594        O  0.18320456  0.88909025  0.40398078    -0.74320
Cu595      Cu  0.13840212  0.87596198  0.51774412     1.04560
Cu596      Cu  0.13642531  0.89013761  0.40220556     1.04330
C597        C  0.19820536  0.88312453  0.45825294     0.91980
C598        C  0.07664479  0.88320869  0.46572030     0.91120
C599        C  0.13692752  0.82476147  0.42161269     0.83270
C600        C  0.13853363  0.94172708  0.49491038     0.89540
O601        O  0.39269462  0.43550358  0.42833891    -0.74210
O602        O  0.39180991  0.34200444  0.43487661    -0.75200
O603        O  0.43617753  0.38767045  0.40616351    -0.63810
O604        O  0.34844722  0.38968765  0.46059983    -0.72230
O605        O  0.33434924  0.38668495  0.35300219    -0.71780
O606        O  0.42421552  0.38626924  0.29718821    -0.63030
O607        O  0.37947225  0.34092514  0.32606184    -0.75540
O608        O  0.37887049  0.43196750  0.32071418    -0.74320
Cu609      Cu  0.39274161  0.38878858  0.43626847     1.04560
Cu610      Cu  0.37867964  0.38645186  0.32056599     1.04330
C611        C  0.38585378  0.44835935  0.37208715     0.91980
C612        C  0.38592709  0.32682838  0.38065620     0.91120
C613        C  0.44443324  0.38640319  0.34430002     0.83270
C614        C  0.32735517  0.38837994  0.41591737     0.89540
O615        O  0.13470465  0.43614654  0.49024515    -0.74210
O616        O  0.13611356  0.34259350  0.48505498    -0.75200
O617        O  0.09149113  0.38830144  0.51322682    -0.63810
O618        O  0.17921515  0.39007505  0.45855719    -0.72230
O619        O  0.19336708  0.38865248  0.56626868    -0.71780
O620        O  0.10353936  0.38710937  0.62213918    -0.63030
O621        O  0.14898353  0.34225899  0.59359857    -0.75540
O622        O  0.14802914  0.43323415  0.59823709    -0.74320
Cu623      Cu  0.13493172  0.38933666  0.48298027     1.04560
Cu624      Cu  0.14904364  0.38782076  0.59871494     1.04330
C625        C  0.14089236  0.44929931  0.54671958     0.91980
C626        C  0.14245933  0.32779520  0.53930401     0.91120
C627        C  0.08327711  0.38720874  0.57512397     0.83270
C628        C  0.20032064  0.38946644  0.50326887     0.89540
O629        O  0.39362320  0.08509452  0.32676962    -0.74210
O630        O  0.39279322  0.17862320  0.65430204    -0.75200
O631        O  0.43714668  0.13282113  0.34958730    -0.63810
O632        O  0.34946128  0.13109519  0.62790517    -0.72230
O633        O  0.33525088  0.13408591  0.40206889    -0.71780
O634        O  0.42512299  0.13398772  0.45850568    -0.63030
O635        O  0.38048594  0.17955886  0.42978275    -0.75540
O636        O  0.37960500  0.08850038  0.43425744    -0.74320
Cu637      Cu  0.39372703  0.13183574  0.65254720     1.04560
Cu638      Cu  0.37957280  0.13402772  0.43483526     1.04330
C639        C  0.38665872  0.07216501  0.38285116     0.91980
C640        C  0.38684216  0.19372738  0.37524356     0.91120
C641        C  0.44537772  0.13390505  0.41149954     0.83270
C642        C  0.32832232  0.13256474  0.33907790     0.89540
O643        O  0.13685516  0.17997070  0.60057795    -0.74210
O644        O  0.13619672  0.08644133  0.59597734    -0.75200
O645        O  0.18025567  0.13278740  0.62795891    -0.63810
O646        O  0.09264996  0.13400604  0.57212143    -0.72230
O647        O  0.10487631  0.13504545  0.46331984    -0.71780
O648        O  0.19463075  0.13420018  0.52041947    -0.63030
O649        O  0.14986623  0.08925663  0.48823323    -0.75540
O650        O  0.14991304  0.18028181  0.49217623    -0.74320
Cu651      Cu  0.13601603  0.13324522  0.60292288     1.04560
Cu652      Cu  0.15037351  0.13469122  0.48736916     1.04330
C653        C  0.14316654  0.19475966  0.54631738     0.91980
C654        C  0.14296247  0.07321262  0.53991985     0.91120
C655        C  0.20145492  0.13336705  0.58350422     0.83270
C656        C  0.08453664  0.13504687  0.51014034     0.89540
O657        O  0.68312976  0.37525019  0.68047786    -0.74210
O658        O  0.59206808  0.37512808  0.68489310    -0.75200
O659        O  0.63710412  0.33046423  0.65223347    -0.63810
O660        O  0.63788345  0.42018086  0.37652896    -0.72230
O661        O  0.63653716  0.43237620  0.60111368    -0.71780
O662        O  0.63530692  0.34477275  0.54475423    -0.63030
O663        O  0.58898674  0.38877331  0.57722197    -0.75540
O664        O  0.68243922  0.38826268  0.57213552    -0.74320
Cu665      Cu  0.63754040  0.37470087  0.68553825     1.04560
Cu666      Cu  0.63573933  0.38901857  0.57005120     1.04330
C667        C  0.69741650  0.38200379  0.62625489     0.91980
C668        C  0.57589796  0.38201542  0.63328329     0.91120
C669        C  0.63615042  0.32360129  0.58913187     0.83270
C670        C  0.63779700  0.44049848  0.66312732     0.89540
O671        O  0.59307852  0.14513520  0.40496815    -0.74210
O672        O  0.68412577  0.14471642  0.40915621    -0.75200
O673        O  0.63874156  0.09990013  0.38011079    -0.63810
O674        O  0.63842790  0.18967591  0.43739565    -0.72230
O675        O  0.63586549  0.17545662  0.54483124    -0.71780
O676        O  0.63785491  0.08781550  0.48893372    -0.63030
O677        O  0.68353444  0.13230858  0.51784452    -0.75540
O678        O  0.58998842  0.13113159  0.51239782    -0.74320
Cu679      Cu  0.63858326  0.14540455  0.40424152     1.04560
Cu680      Cu  0.63675357  0.13120239  0.51976763     1.04330
C681        C  0.57689734  0.13804561  0.45640040     0.91980
C682        C  0.69846639  0.13834047  0.46354799     0.91120
C683        C  0.63885182  0.07962715  0.42694146     0.83270
C684        C  0.63701125  0.19659958  0.50042603     0.89540
O685        O  0.93552573  0.37607754  0.57048673    -0.74210
O686        O  0.84455790  0.37643404  0.57659505    -0.75200
O687        O  0.88976556  0.42132311  0.54754296    -0.63810
O688        O  0.89036403  0.33141390  0.60307700    -0.72230
O689        O  0.89343258  0.34562210  0.37732672    -0.71780
O690        O  0.89110505  0.43335793  0.65653760    -0.63030
O691        O  0.84559883  0.38874642  0.35217498    -0.75540
O692        O  0.93908480  0.39002834  0.67809682    -0.74320
Cu693      Cu  0.89004315  0.37576474  0.57074830     1.04560
Cu694      Cu  0.89237801  0.38990487  0.35314133     1.04330
C695        C  0.95191950  0.38320691  0.62168902     0.91980
C696        C  0.83045260  0.38275939  0.63136406     0.91120
C697        C  0.88988621  0.44158564  0.59470486     0.83270
C698        C  0.89207953  0.32447740  0.33264437     0.89540
O699        O  0.93688251  0.14609021  0.51583833    -0.74210
O700        O  0.84585866  0.14591213  0.51119035    -0.75200
O701        O  0.89111136  0.10099796  0.54002611    -0.63810
O702        O  0.89185990  0.19075709  0.48356155    -0.72230
O703        O  0.89360503  0.17635013  0.37594207    -0.71780
O704        O  0.89249648  0.08871744  0.43116479    -0.63030
O705        O  0.84648051  0.13281136  0.40271234    -0.75540
O706        O  0.94004176  0.13239999  0.40802861    -0.74320
Cu707      Cu  0.89143024  0.14649477  0.51631773     1.04560
Cu708      Cu  0.89323362  0.13209887  0.40069019     1.04330
C709        C  0.95309749  0.13918379  0.46425371     0.91980
C710        C  0.83153540  0.13909223  0.45693409     0.91120
C711        C  0.89125595  0.08063254  0.49308569     0.83270
C712        C  0.89278019  0.19756699  0.42052311     0.89540
O713        O  0.63549767  0.58512263  0.43162482    -0.74210
O714        O  0.63548974  0.67869763  0.43617573    -0.75200
O715        O  0.59151579  0.63229634  0.40828260    -0.63810
O716        O  0.67926070  0.63185294  0.46303744    -0.72230
O717        O  0.69337978  0.63338814  0.35534055    -0.71780
O718        O  0.60350264  0.63346077  0.29937768    -0.63030
O719        O  0.64824310  0.67906738  0.32759286    -0.75540
O720        O  0.64890847  0.58804671  0.32374185    -0.74320
Cu721      Cu  0.63497132  0.63193801  0.43855334     1.04560
Cu722      Cu  0.64904524  0.63349007  0.32284254     1.04330
C723        C  0.64222210  0.57194537  0.37548070     0.91980
C724        C  0.64162168  0.69351341  0.38184415     0.91120
C725        C  0.58325388  0.63319486  0.34638533     0.83270
C726        C  0.70034972  0.63264797  0.41835048     0.89540
O727        O  0.89269958  0.58599461  0.49396609    -0.74210
O728        O  0.89176616  0.67947187  0.48769630    -0.75200
O729        O  0.93613716  0.63384845  0.51654380    -0.63810
O730        O  0.84844857  0.63184767  0.46164882    -0.72230
O731        O  0.83429093  0.63481920  0.56918625    -0.71780
O732        O  0.92410879  0.63517919  0.62546713    -0.63030
O733        O  0.87938313  0.68052284  0.59646561    -0.75540
O734        O  0.87879439  0.58943063  0.60152616    -0.74320
Cu735      Cu  0.89272581  0.63270966  0.48620086     1.04560
Cu736      Cu  0.87859497  0.63498267  0.60184273     1.04330
C737        C  0.88581680  0.57308206  0.55010999     0.91980
C738        C  0.88584634  0.69463165  0.54190307     0.91120
C739        C  0.94434965  0.63515438  0.57844918     0.83270
C740        C  0.82733386  0.63321965  0.50622831     0.89540
O741        O  0.63607066  0.93496804  0.32535822    -0.74210
O742        O  0.63632962  0.84140918  0.65377794    -0.75200
O743        O  0.59233202  0.88755416  0.34895921    -0.63810
O744        O  0.67995742  0.88845405  0.62663085    -0.72230
O745        O  0.69431490  0.88696452  0.40087087    -0.71780
O746        O  0.60456848  0.88635200  0.45777291    -0.63030
O747        O  0.64944381  0.84099250  0.42883076    -0.75540
O748        O  0.64969085  0.93202393  0.43314141    -0.74320
Cu749      Cu  0.63570229  0.88815672  0.65157772     1.04560
Cu750      Cu  0.65005798  0.88658157  0.43381564     1.04330
C751        C  0.64286547  0.94813398  0.38148615     0.91980
C752        C  0.64258000  0.82656356  0.37468416     0.91120
C753        C  0.58422494  0.88645870  0.41092277     0.83270
C754        C  0.70115142  0.88782500  0.33780999     0.89540
O755        O  0.89340572  0.93636730  0.59502728    -0.74210
O756        O  0.89253630  0.84285996  0.60122484    -0.75200
O757        O  0.93691328  0.88859665  0.57252795    -0.63810
O758        O  0.84919205  0.89041537  0.62727714    -0.72230
O759        O  0.83501132  0.88735034  0.51974385    -0.71780
O760        O  0.92488888  0.88735547  0.46358763    -0.63030
O761        O  0.88024276  0.84184515  0.49237929    -0.75540
O762        O  0.87940103  0.93289825  0.48751009    -0.74320
Cu763      Cu  0.89347811  0.88963884  0.60277865     1.04560
Cu764      Cu  0.87934014  0.88736759  0.48712483     1.04330
C765        C  0.88649164  0.94926151  0.53886091     0.91980
C766        C  0.88659666  0.82771845  0.54698907     0.91120
C767        C  0.94514386  0.88745735  0.51063407     0.83270
C768        C  0.82806330  0.88889244  0.58270689     0.89540
C769        C  0.74109899  0.88260051  0.58042957    -0.14620
C770        C  0.73363210  0.88810308  0.64869970     0.07530
C771        C  0.75741518  0.89410583  0.36142280    -0.14620
C772        C  0.78805142  0.89438019  0.67328408    -0.14620
C773        C  0.79554193  0.88880152  0.60503223     0.07530
C774        C  0.77174390  0.88279723  0.55897854    -0.14620
H775        H  0.72327181  0.87780856  0.54359618     0.11520
H776        H  0.75222396  0.89906033  0.41380594     0.11520
H777        H  0.80585540  0.89915697  0.37684552     0.11520
H778        H  0.77691541  0.87781483  0.50660184     0.11520
C779        C  0.88657765  0.74469090  0.60473301    -0.14620
C780        C  0.88658239  0.72867410  0.54277701     0.07530
C781        C  0.88714433  0.74550836  0.48253223    -0.14620
C782        C  0.88718311  0.77765756  0.48420540    -0.14620
C783        C  0.88705529  0.79367405  0.54615675     0.07530
C784        C  0.88700573  0.77683946  0.60641095    -0.14620
H785        H  0.88632396  0.73228909  0.65195728     0.11520
H786        H  0.88719557  0.73379668  0.43429691     0.11520
H787        H  0.88741391  0.79006187  0.43698292     0.11520
H788        H  0.88687468  0.78855692  0.65463882     0.11520
C789        C  0.64180718  0.74475039  0.44048923    -0.14620
C790        C  0.64110739  0.72754590  0.38050890     0.07530
C791        C  0.64038108  0.74317133  0.31832834    -0.14620
C792        C  0.64049388  0.77531233  0.31614800    -0.14620
C793        C  0.64174887  0.79252271  0.37609634     0.07530
C794        C  0.64232825  0.77688658  0.43829021    -0.14620
H795        H  0.64247990  0.73333509  0.48888909     0.11520
H796        H  0.63957634  0.73045854  0.27133489     0.11520
H797        H  0.63991445  0.78671188  0.26772594     0.11520
H798        H  0.64317244  0.78957614  0.48530769     0.11520
C799        C  0.74033578  0.63843266  0.50880297    -0.14620
C800        C  0.73285822  0.63278118  0.44058402     0.07530
C801        C  0.75665507  0.62711517  0.39440355    -0.14620
C802        C  0.78731816  0.62727931  0.41574607    -0.14620
C803        C  0.79481000  0.63298383  0.48396231     0.07530
C804        C  0.77099820  0.63867246  0.53011894    -0.14620
H805        H  0.72249626  0.64299330  0.54571564     0.11520
H806        H  0.75146626  0.62210086  0.34203017     0.11520
H807        H  0.80514182  0.62272923  0.37879295     0.11520
H808        H  0.77615846  0.64370797  0.58249352     0.11520
C809        C  0.88113199  0.99546358  0.46636638    -0.14620
C810        C  0.88695696  0.98316312  0.53072400     0.07530
C811        C  0.89363170  0.00343701  0.58447067    -0.14620
C812        C  0.89470627  0.03539192  0.57337901    -0.14620
C813        C  0.88943890  0.04734355  0.50829033     0.07530
C814        C  0.88243771  0.02694003  0.45533283    -0.14620
H815        H  0.87581278  0.98071420  0.42368571     0.11520
H816        H  0.89820115  0.99462994  0.63463770     0.11520
H817        H  0.90010414  0.05062275  0.61517323     0.11520
H818        H  0.87788976  0.03526899  0.40473156     0.11520
C819        C  0.89341646  0.48696091  0.51483432    -0.14620
C820        C  0.88818736  0.47491892  0.57984132     0.07530
C821        C  0.88147596  0.49527793  0.63306203    -0.14620
C822        C  0.88040545  0.52679252  0.62234419    -0.14620
C823        C  0.88616930  0.53916792  0.55804714     0.07530
C824        C  0.89256364  0.51894306  0.50405696    -0.14620
H825        H  0.89861853  0.47177308  0.47285334     0.11520
H826        H  0.87699030  0.48688558  0.68362593     0.11520
H827        H  0.87529564  0.54150897  0.66519430     0.11520
H828        H  0.89707339  0.52780730  0.45392541     0.11520
C829        C  0.88679035  0.26805281  0.30867697    -0.14620
C830        C  0.89246507  0.29195338  0.35479039     0.07530
C831        C  0.89826460  0.28455709  0.42293093    -0.14620
C832        C  0.89847818  0.25392259  0.44426060    -0.14620
C833        C  0.89276687  0.23003973  0.39816363     0.07530
C834        C  0.88708697  0.23740929  0.32998407    -0.14620
H835        H  0.88168028  0.27313332  0.58970795     0.11520
H836        H  0.90282200  0.30243924  0.45986087     0.11520
H837        H  0.90354136  0.24882206  0.49657859     0.11520
H838        H  0.88249760  0.21950295  0.29312795     0.11520
C839        C  0.63477917  0.03416148  0.34673645    -0.14620
C840        C  0.64063945  0.04632235  0.41157104     0.07530
C841        C  0.64808417  0.02610326  0.46426806    -0.14620
C842        C  0.64916020  0.99459756  0.45331889    -0.14620
C843        C  0.64266988  0.98206925  0.38930129     0.07530
C844        C  0.63564576  0.00215830  0.33571818    -0.14620
H845        H  0.62903999  0.04926075  0.30514265     0.11520
H846        H  0.65310536  0.03459580  0.51464672     0.11520
H847        H  0.65481936  0.98001090  0.49585392     0.11520
H848        H  0.63059948  0.99317430  0.28579361     0.11520
C849        C  0.74959725  0.13801868  0.52240133    -0.14620
C850        C  0.73251058  0.13792373  0.46234689     0.07530
C851        C  0.74827131  0.13774237  0.40020706    -0.14620
C852        C  0.78041228  0.13775794  0.39814979    -0.14620
C853        C  0.79749729  0.13836422  0.45819579     0.07530
C854        C  0.78173932  0.13843902  0.52033984    -0.14620
H855        H  0.73808645  0.13818999  0.57077305     0.11520
H856        H  0.73566871  0.13746763  0.35313089     0.11520
H857        H  0.79191803  0.13765733  0.34977085     0.11520
H858        H  0.79434476  0.13873136  0.56741185     0.11520
C859        C  0.64854173  0.52547429  0.30370077    -0.14620
C860        C  0.64204443  0.53800822  0.36769901     0.07530
C861        C  0.63492032  0.51792849  0.42121938    -0.14620
C862        C  0.63392025  0.48593336  0.74346290    -0.14620
C863        C  0.63973155  0.47377948  0.67861284     0.07530
C864        C  0.64731955  0.49398128  0.29267482    -0.14620
H865        H  0.65428903  0.54005001  0.26121967     0.11520
H866        H  0.62986671  0.52691652  0.47112829     0.11520
H867        H  0.62809306  0.47084021  0.78499327     0.11520
H868        H  0.65233631  0.48548267  0.24230660     0.11520
C869        C  0.74738322  0.38184348  0.68925042    -0.14620
C870        C  0.73145128  0.38267817  0.62730950     0.07530
C871        C  0.74836156  0.38406506  0.56713186    -0.14620
C872        C  0.78049291  0.38411893  0.56880342    -0.14620
C873        C  0.79642585  0.38318373  0.63070721     0.07530
C874        C  0.77953282  0.38229670  0.69095040    -0.14620
H875        H  0.73492332  0.38085566  0.40310038     0.11520
H876        H  0.73672903  0.38484781  0.51890116     0.11520
H877        H  0.79295189  0.38509307  0.52161423     0.11520
H878        H  0.79120358  0.38144615  0.40579684     0.11520
C879        C  0.64164895  0.25297597  0.47668422    -0.14620
C880        C  0.63668362  0.22912337  0.52292924     0.07530
C881        C  0.63153243  0.23659029  0.59135768    -0.14620
C882        C  0.63118956  0.26727134  0.61276849    -0.14620
C883        C  0.63617649  0.29110911  0.56652520     0.07530
C884        C  0.64123224  0.28365992  0.49807490    -0.14620
H885        H  0.64631488  0.24779959  0.42419819     0.11520
H886        H  0.62754157  0.21874011  0.62841365     0.11520
H887        H  0.62656227  0.27246995  0.66526342     0.11520
H888        H  0.64525353  0.30152670  0.46107176     0.11520
C889        C  0.00723002  0.13209501  0.41859416    -0.14620
C890        C  0.98701881  0.13886240  0.47227518     0.07530
C891        C  0.99940679  0.14499454  0.53655814    -0.14620
C892        C  0.03089300  0.14388365  0.54761170    -0.14620
C893        C  0.05123886  0.13676137  0.49476379     0.07530
C894        C  0.03921096  0.13119837  0.42972055    -0.14620
H895        H  0.99835820  0.12730568  0.36848011     0.11520
H896        H  0.98472273  0.15041914  0.57919772     0.11520
H897        H  0.03927096  0.14865586  0.59817292     0.11520
H898        H  0.05440107  0.12569774  0.38800896     0.11520
C899        C  0.49897169  0.14262587  0.37361888    -0.14620
C900        C  0.47870946  0.13557674  0.42657651     0.07530
C901        C  0.49084698  0.13005793  0.49145412    -0.14620
C902        C  0.52284451  0.13094644  0.50231867    -0.14620
C903        C  0.54296946  0.13766712  0.44854715     0.07530
C904        C  0.53048165  0.14373286  0.38442247    -0.14620
H905        H  0.49050725  0.14735708  0.32317657     0.11520
H906        H  0.47572711  0.12460820  0.53323942     0.11520
H907        H  0.53179589  0.12620783  0.55232055     0.11520
H908        H  0.54510476  0.14911112  0.34173403     0.11520
C909        C  0.28836085  0.12691935  0.58171453    -0.14620
C910        C  0.29581306  0.13258759  0.64996825     0.07530
C911        C  0.27198858  0.13858281  0.36257753    -0.14620
C912        C  0.24135408  0.13869637  0.67434088    -0.14620
C913        C  0.23392434  0.13311122  0.60606670     0.07530
C914        C  0.25773344  0.12710816  0.56012312    -0.14620
H915        H  0.30618897  0.12213878  0.54491123     0.11520
H916        H  0.27712824  0.14362307  0.41495541     0.11520
H917        H  0.22350493  0.14349768  0.37775065     0.11520
H918        H  0.25257357  0.12210147  0.50773636     0.11520
C919        C  0.02944159  0.37994401  0.53695019    -0.14620
C920        C  0.04996097  0.38571453  0.59030681     0.07530
C921        C  0.03810287  0.39018066  0.65586309    -0.14620
C922        C  0.00615368  0.38936478  0.66715324    -0.14620
C923        C  0.98578562  0.38376905  0.61311082     0.07530
C924        C  0.99796106  0.37891685  0.54815679    -0.14620
H925        H  0.03767618  0.37611501  0.48593046     0.11520
H926        H  0.05341954  0.39469154  0.69793890     0.11520
H927        H  0.99742702  0.39320708  0.71774317     0.11520
H928        H  0.98311165  0.37450397  0.50521659     0.11520
C929        C  0.14182066  0.27812709  0.60275791    -0.14620
C930        C  0.14216256  0.29376289  0.54057914     0.07530
C931        C  0.14243690  0.27657008  0.48056586    -0.14620
C932        C  0.14283827  0.24443113  0.48272251    -0.14620
C933        C  0.14255360  0.22879384  0.54491383     0.07530
C934        C  0.14180791  0.24599241  0.60490368    -0.14620
H935        H  0.14138189  0.29082537  0.64978613     0.11520
H936        H  0.14275694  0.28799444  0.43216643     0.11520
H937        H  0.14327097  0.23173573  0.43569157     0.11520
H938        H  0.14153002  0.23458266  0.65332083     0.11520
C939        C  0.49795467  0.37739723  0.38237182    -0.14620
C940        C  0.47774555  0.38458052  0.32936775     0.07530
C941        C  0.48991063  0.39011414  0.59789114    -0.14620
C942        C  0.52190033  0.38915622  0.58715144    -0.14620
C943        C  0.54198145  0.38235312  0.64098441     0.07530
C944        C  0.52946277  0.37622127  0.37168925    -0.14620
H945        H  0.48944887  0.37263508  0.43274900     0.11520
H946        H  0.47482031  0.39565652  0.55607857     0.11520
H947        H  0.53088176  0.39393917  0.53721548     0.11520
H948        H  0.54405884  0.37075896  0.41440405     0.11520
C949        C  0.38673520  0.27679259  0.31775335    -0.14620
C950        C  0.38670858  0.29278152  0.37974808     0.07530
C951        C  0.38728978  0.27591430  0.43995035    -0.14620
C952        C  0.38737416  0.24376111  0.43818880    -0.14620
C953        C  0.38727481  0.22777598  0.37619184     0.07530
C954        C  0.38720845  0.24464613  0.31598861    -0.14620
H955        H  0.38647043  0.28921569  0.27055535     0.11520
H956        H  0.38731980  0.28760169  0.48821380     0.11520
H957        H  0.38761388  0.23132839  0.48537603     0.11520
H958        H  0.38709651  0.23295799  0.26772609     0.11520
C959        C  0.28731182  0.39459658  0.50619581    -0.14620
C960        C  0.29481448  0.38885345  0.43801130     0.07530
C961        C  0.27099198  0.38341064  0.39169865    -0.14620
C962        C  0.24031703  0.38385299  0.41285705    -0.14620
C963        C  0.23283075  0.38946714  0.48107443     0.07530
C964        C  0.25663449  0.39496259  0.52738155    -0.14620
H965        H  0.30514105  0.39898558  0.54326218     0.11520
H966        H  0.27615282  0.37838170  0.33933235     0.11520
H967        H  0.22247670  0.37941461  0.37584276     0.11520
H968        H  0.25144487  0.39992980  0.57976468     0.11520
C969        C  0.14795648  0.99517725  0.45745245    -0.14620
C970        C  0.14038351  0.97503042  0.51017432     0.07530
C971        C  0.13450302  0.98725707  0.57492481    -0.14620
C972        C  0.13548086  0.01926246  0.58583351    -0.14620
C973        C  0.14264135  0.03927938  0.53222564     0.07530
C974        C  0.14914566  0.02668170  0.46829616    -0.14620
H975        H  0.15300365  0.98662757  0.40714073     0.11520
H976        H  0.12866989  0.97220967  0.61653123     0.11520
H977        H  0.13041949  0.02830467  0.63569172     0.11520
H978        H  0.15490801  0.04121223  0.42574958     0.11520
C979        C  0.02257084  0.89026444  0.41982203    -0.14620
C980        C  0.04272200  0.88358668  0.47361642     0.07530
C981        C  0.03026670  0.87759724  0.53777895    -0.14620
C982        C  0.99875829  0.87874171  0.54859033    -0.14620
C983        C  0.97847271  0.88574851  0.49559875     0.07530
C984        C  0.99058151  0.89118617  0.43069072    -0.14620
H985        H  0.03149683  0.89494803  0.36979318     0.11520
H986        H  0.04491540  0.87225924  0.58048282     0.11520
H987        H  0.99031268  0.87407356  0.59905698     0.11520
H988        H  0.97544466  0.89660150  0.38887866     0.11520
C989        C  0.13951838  0.52669844  0.63242076    -0.14620
C990        C  0.13721673  0.54735486  0.57827015     0.07530
C991        C  0.13584533  0.53555288  0.51194348    -0.14620
C992        C  0.13678633  0.50357409  0.50054100    -0.14620
C993        C  0.13942598  0.48314224  0.55530443     0.07530
C994        C  0.14066648  0.49522358  0.62114898    -0.14620
H995        H  0.14069710  0.53481087  0.68413051     0.11520
H996        H  0.13398138  0.55097607  0.46927951     0.11520
H997        H  0.13566066  0.49487056  0.44931756     0.11520
H998        H  0.14247919  0.48026663  0.66463143     0.11520
C999        C  0.02182654  0.63271685  0.66907958    -0.14620
C1000       C  0.04185055  0.63981570  0.61537239     0.07530
C1001       C  0.02927327  0.64615746  0.55146202    -0.14620
C1002       C  0.99777575  0.64479193  0.54071067    -0.14620
C1003       C  0.97763543  0.63721937  0.59352673     0.07530
C1004       C  0.98984263  0.63157812  0.65827830    -0.14620
H1005       H  0.03085336  0.62776852  0.38558608     0.11520
H1006       H  0.04381977  0.65187085  0.50885840     0.11520
H1007       H  0.98922475  0.64968238  0.49040893     0.11520
H1008       H  0.97479884  0.62577057  0.69996249     0.11520
C1009       C  0.14258750  0.73780134  0.42320739    -0.14620
C1010       C  0.13688620  0.73035975  0.35497793     0.07530
C1011       C  0.13107400  0.75416754  0.30909632    -0.14620
C1012       C  0.13111230  0.78481156  0.33076450    -0.14620
C1013       C  0.13683013  0.79226309  0.39900946     0.07530
C1014       C  0.14269791  0.76844228  0.44484746    -0.14620
H1015       H  0.14725936  0.71994836  0.45988857     0.11520
H1016       H  0.12600870  0.74899861  0.25673530     0.11520
H1017       H  0.12643489  0.80264980  0.29405515     0.11520
H1018       H  0.14776744  0.77358009  0.49721832     0.11520
C1019       C  0.39472633  0.98603398  0.34808269    -0.14620
C1020       C  0.38920643  0.97404323  0.41302465     0.07530
C1021       C  0.38205386  0.99441821  0.46592228    -0.14620
C1022       C  0.38087655  0.02590786  0.45500171    -0.14620
C1023       C  0.38698438  0.03825130  0.39082192     0.07530
C1024       C  0.39377764  0.01800339  0.33710617    -0.14620
H1025       H  0.40024419  0.97082337  0.30633578     0.11520
H1026       H  0.37730751  0.98605593  0.51640049     0.11520
H1027       H  0.37543957  0.04063183  0.49764551     0.11520
H1028       H  0.39854910  0.02684048  0.28706449     0.11520
C1029       C  0.53893727  0.89023534  0.49134587    -0.14620
C1030       C  0.55093187  0.88477350  0.42625781     0.07530
C1031       C  0.53056376  0.87772514  0.37336709    -0.14620
C1032       C  0.49908572  0.87656691  0.38444090    -0.14620
C1033       C  0.48673334  0.88258113  0.44878479     0.07530
C1034       C  0.50696664  0.88929710  0.50249037    -0.14620
H1035       H  0.55414658  0.89567623  0.53308888     0.11520
H1036       H  0.53891933  0.87302937  0.32277081     0.11520
H1037       H  0.48437976  0.87119337  0.34177990     0.11520
H1038       H  0.49811963  0.89400381  0.55264525     0.11520
C1039       C  0.28140113  0.88274297  0.40114863    -0.14620
C1040       C  0.29723461  0.88306075  0.46323350     0.07530
C1041       C  0.28022086  0.88395863  0.52333108    -0.14620
C1042       C  0.24807873  0.88400947  0.52139510    -0.14620
C1043       C  0.23224609  0.88356904  0.45932029     0.07530
C1044       C  0.24925727  0.88319549  0.39920232    -0.14620
H1045       H  0.29394428  0.88219955  0.35403113     0.11520
H1046       H  0.29178269  0.88428763  0.57166779     0.11520
H1047       H  0.23553170  0.88453104  0.56850976     0.11520
H1048       H  0.23768392  0.88279036  0.35088155     0.11520
C1049       C  0.39323487  0.53452554  0.40686266    -0.14620
C1050       C  0.38815083  0.54645670  0.67501969     0.07530
C1051       C  0.38164495  0.52601073  0.62183919    -0.14620
C1052       C  0.38061466  0.49451773  0.63277300    -0.14620
C1053       C  0.38620883  0.48225283  0.36392620     0.07530
C1054       C  0.39241890  0.50256177  0.41786565    -0.14620
H1055       H  0.39828500  0.54978679  0.44881192     0.11520
H1056       H  0.37728467  0.53431571  0.57114379     0.11520
H1057       H  0.37566002  0.47973116  0.58994409     0.11520
H1058       H  0.39680296  0.49377757  0.46812801     0.11520
C1059       C  0.50614626  0.63189288  0.58720962    -0.14620
C1060       C  0.48572756  0.63675579  0.64145098     0.07530
C1061       C  0.49783281  0.64044323  0.37350018    -0.14620
C1062       C  0.52930052  0.63920490  0.38484817    -0.14620
C1063       C  0.54989803  0.63438730  0.33121838     0.07530
C1064       C  0.53809195  0.63087983  0.59865063    -0.14620
H1065       H  0.49746120  0.62888183  0.53632148     0.11520
H1066       H  0.48292906  0.64417355  0.41662017     0.11520
H1067       H  0.53746448  0.64223906  0.43617110     0.11520
H1068       H  0.55345966  0.62709261  0.55636356     0.11520
C1069       C  0.27933659  0.63782647  0.56382025    -0.14620
C1070       C  0.29633326  0.63800190  0.62400455     0.07530
C1071       C  0.28048293  0.63785013  0.68602415    -0.14620
C1072       C  0.24835189  0.63766944  0.35452567    -0.14620
C1073       C  0.23134651  0.63803282  0.62771094     0.07530
C1074       C  0.24718162  0.63804535  0.56566269    -0.14620
H1075       H  0.29092481  0.63793260  0.51554037     0.11520
H1076       H  0.29300681  0.63777379  0.39986667     0.11520
H1077       H  0.23678626  0.63765598  0.40283502     0.11520
H1078       H  0.23462866  0.63815734  0.51852464     0.11520
C1079       C  0.39816030  0.76742366  0.47665018    -0.14620
C1080       C  0.39262028  0.79128954  0.52288975     0.07530
C1081       C  0.38716087  0.78387980  0.59111649    -0.14620
C1082       C  0.38689877  0.75321960  0.61231285    -0.14620
C1083       C  0.39240250  0.72933524  0.56606448     0.07530
C1084       C  0.39797964  0.73676717  0.49787142    -0.14620
H1085       H  0.40307472  0.77256407  0.42430478     0.11520
H1086       H  0.38271008  0.80176554  0.62809723     0.11520
H1087       H  0.38193381  0.74810436  0.66464440     0.11520
H1088       H  0.40239328  0.71889970  0.46082894     0.11520
O1089       O  0.34454419  0.64501937  0.01114658    -0.74210
O1090       O  0.43553503  0.64508006  0.01713885    -0.75200
O1091       O  0.39044087  0.68989021  0.98445100    -0.63810
O1092       O  0.38968278  0.60007058  0.70701660    -0.72230
O1093       O  0.39098559  0.58792516  0.93141215    -0.71780
O1094       O  0.39333208  0.67563533  0.87688190    -0.63030
O1095       O  0.43899029  0.63110458  0.90953223    -0.75540
O1096       O  0.34547326  0.63252299  0.90234262    -0.74320
Cu1097     Cu  0.39004468  0.64557924  0.01692962     1.04560
Cu1098     Cu  0.39226383  0.63134267  0.90125562     1.04330
C1099       C  0.33037464  0.63856958  0.95649520     0.91980
C1100       C  0.45187493  0.63777915  0.96599316     0.91120
C1101       C  0.39205909  0.69680290  0.92153302     0.83270
C1102       C  0.38979628  0.57976437  0.99329085     0.89540
O1103       O  0.34555189  0.87549309  0.74344019    -0.74210
O1104       O  0.43657728  0.87528720  0.73863133    -0.75200
O1105       O  0.39158355  0.83061880  0.77092176    -0.63810
O1106       O  0.39080148  0.92039469  0.71455727    -0.72230
O1107       O  0.39224178  0.93264791  0.82343463    -0.71780
O1108       O  0.39342598  0.84498442  0.87855974    -0.63030
O1109       O  0.43980572  0.88896401  0.84644770    -0.75540
O1110       O  0.34626790  0.88855688  0.85193558    -0.74320
Cu1111     Cu  0.39112493  0.87489215  0.73822428     1.04560
Cu1112     Cu  0.39301373  0.88925606  0.85386728     1.04330
C1113       C  0.33127500  0.88230505  0.79773630     0.91980
C1114       C  0.45282290  0.88220358  0.79019312     0.91120
C1115       C  0.39257527  0.82378121  0.83394271     0.83270
C1116       C  0.39098225  0.94074824  0.76152081     0.89540
O1117       O  0.18297918  0.64552705  0.90805363    -0.74210
O1118       O  0.09191281  0.64658001  0.90443435    -0.75200
O1119       O  0.13744642  0.69088537  0.93612156    -0.63810
O1120       O  0.13715429  0.60096041  0.87975289    -0.72230
O1121       O  0.13567124  0.58909690  0.98862214    -0.71780
O1122       O  0.13587231  0.67678486  0.71042175    -0.63030
O1123       O  0.08890591  0.63334277  0.67902318    -0.75540
O1124       O  0.18238682  0.63268797  0.68316707    -0.74320
Cu1125     Cu  0.13738677  0.64653052  0.90340105     1.04560
Cu1126     Cu  0.13566276  0.63251766  0.68572722     1.04330
C1127       C  0.19731350  0.63877181  0.96224345     0.91980
C1128       C  0.07577652  0.64000845  0.95626018     0.91120
C1129       C  0.13672690  0.69786225  0.66584648     0.83270
C1130       C  0.13654385  0.58075765  0.92672721     0.89540
O1131       O  0.18393856  0.87677353  0.84605438    -0.74210
O1132       O  0.09287960  0.87611453  0.85044355    -0.75200
O1133       O  0.13838571  0.83167514  0.81797950    -0.63810
O1134       O  0.13845622  0.92147657  0.87512248    -0.72230
O1135       O  0.13749167  0.93351685  0.76627327    -0.71780
O1136       O  0.13559737  0.84590072  0.71056240    -0.63030
O1137       O  0.08967846  0.89015134  0.74304122    -0.75540
O1138       O  0.18320456  0.88909025  0.73731410    -0.74320
Cu1139     Cu  0.13840212  0.87596198  0.85107744     1.04560
Cu1140     Cu  0.13642531  0.89013761  0.73553888     1.04330
C1141       C  0.19820536  0.88312453  0.79158626     0.91980
C1142       C  0.07664479  0.88320869  0.79905362     0.91120
C1143       C  0.13692752  0.82476147  0.75494601     0.83270
C1144       C  0.13853363  0.94172709  0.82824370     0.89540
O1145       O  0.39269462  0.43550358  0.76167224    -0.74210
O1146       O  0.39180991  0.34200444  0.76820995    -0.75200
O1147       O  0.43617753  0.38767045  0.73949684    -0.63810
O1148       O  0.34844722  0.38968764  0.79393316    -0.72230
O1149       O  0.33434924  0.38668495  0.68633553    -0.71780
O1150       O  0.42421552  0.38626924  0.63052154    -0.63030
O1151       O  0.37947225  0.34092514  0.65939517    -0.75540
O1152       O  0.37887049  0.43196750  0.65404752    -0.74320
Cu1153     Cu  0.39274161  0.38878858  0.76960180     1.04560
Cu1154     Cu  0.37867964  0.38645186  0.65389932     1.04330
C1155       C  0.38585377  0.44835935  0.70542048     0.91980
C1156       C  0.38592709  0.32682838  0.71398953     0.91120
C1157       C  0.44443324  0.38640319  0.67763335     0.83270
C1158       C  0.32735517  0.38837993  0.74925071     0.89540
O1159       O  0.13470465  0.43614654  0.82357849    -0.74210
O1160       O  0.13611356  0.34259350  0.81838831    -0.75200
O1161       O  0.09149113  0.38830145  0.84656016    -0.63810
O1162       O  0.17921515  0.39007505  0.79189053    -0.72230
O1163       O  0.19336708  0.38865248  0.89960202    -0.71780
O1164       O  0.10353936  0.38710938  0.95547252    -0.63030
O1165       O  0.14898353  0.34225899  0.92693190    -0.75540
O1166       O  0.14802915  0.43323415  0.93157043    -0.74320
Cu1167     Cu  0.13493172  0.38933666  0.81631360     1.04560
Cu1168     Cu  0.14904365  0.38782076  0.93204827     1.04330
C1169       C  0.14089237  0.44929931  0.88005292     0.91980
C1170       C  0.14245933  0.32779520  0.87263735     0.91120
C1171       C  0.08327711  0.38720875  0.90845730     0.83270
C1172       C  0.20032064  0.38946644  0.83660220     0.89540
O1173       O  0.39362320  0.08509452  0.66010295    -0.74210
O1174       O  0.39279322  0.17862320  0.98763538    -0.75200
O1175       O  0.43714668  0.13282113  0.68292063    -0.63810
O1176       O  0.34946128  0.13109519  0.96123851    -0.72230
O1177       O  0.33525088  0.13408591  0.73540222    -0.71780
O1178       O  0.42512299  0.13398772  0.79183901    -0.63030
O1179       O  0.38048594  0.17955886  0.76311608    -0.75540
O1180       O  0.37960501  0.08850038  0.76759076    -0.74320
Cu1181     Cu  0.39372702  0.13183574  0.98588055     1.04560
Cu1182     Cu  0.37957280  0.13402772  0.76816859     1.04330
C1183       C  0.38665872  0.07216501  0.71618449     0.91980
C1184       C  0.38684216  0.19372738  0.70857689     0.91120
C1185       C  0.44537772  0.13390505  0.74483287     0.83270
C1186       C  0.32832232  0.13256474  0.67241122     0.89540
O1187       O  0.13685516  0.17997070  0.93391128    -0.74210
O1188       O  0.13619672  0.08644133  0.92931066    -0.75200
O1189       O  0.18025567  0.13278740  0.96129223    -0.63810
O1190       O  0.09264996  0.13400604  0.90545475    -0.72230
O1191       O  0.10487631  0.13504545  0.79665316    -0.71780
O1192       O  0.19463075  0.13420019  0.85375280    -0.63030
O1193       O  0.14986623  0.08925663  0.82156656    -0.75540
O1194       O  0.14991304  0.18028181  0.82550956    -0.74320
Cu1195     Cu  0.13601603  0.13324522  0.93625621     1.04560
Cu1196     Cu  0.15037351  0.13469122  0.82070248     1.04330
C1197       C  0.14316654  0.19475966  0.87965071     0.91980
C1198       C  0.14296247  0.07321262  0.87325317     0.91120
C1199       C  0.20145492  0.13336705  0.91683755     0.83270
C1200       C  0.08453664  0.13504688  0.84347367     0.89540
O1201       O  0.68312976  0.37525019  0.01381120    -0.74210
O1202       O  0.59206808  0.37512808  0.01822644    -0.75200
O1203       O  0.63710412  0.33046423  0.98556681    -0.63810
O1204       O  0.63788345  0.42018086  0.70986229    -0.72230
O1205       O  0.63653716  0.43237620  0.93444702    -0.71780
O1206       O  0.63530692  0.34477276  0.87808757    -0.63030
O1207       O  0.58898674  0.38877332  0.91055531    -0.75540
O1208       O  0.68243922  0.38826268  0.90546886    -0.74320
Cu1209     Cu  0.63754040  0.37470087  0.01887159     1.04560
Cu1210     Cu  0.63573933  0.38901858  0.90338454     1.04330
C1211       C  0.69741650  0.38200379  0.95958822     0.91980
C1212       C  0.57589796  0.38201542  0.96661663     0.91120
C1213       C  0.63615042  0.32360129  0.92246520     0.83270
C1214       C  0.63779700  0.44049848  0.99646067     0.89540
O1215       O  0.59307852  0.14513520  0.73830148    -0.74210
O1216       O  0.68412577  0.14471642  0.74248954    -0.75200
O1217       O  0.63874157  0.09990013  0.71344413    -0.63810
O1218       O  0.63842790  0.18967591  0.77072899    -0.72230
O1219       O  0.63586549  0.17545662  0.87816457    -0.71780
O1220       O  0.63785491  0.08781551  0.82226706    -0.63030
O1221       O  0.68353444  0.13230858  0.85117786    -0.75540
O1222       O  0.58998842  0.13113159  0.84573116    -0.74320
Cu1223     Cu  0.63858326  0.14540455  0.73757486     1.04560
Cu1224     Cu  0.63675357  0.13120239  0.85310097     1.04330
C1225       C  0.57689734  0.13804561  0.78973374     0.91980
C1226       C  0.69846639  0.13834047  0.79688133     0.91120
C1227       C  0.63885182  0.07962716  0.76027481     0.83270
C1228       C  0.63701125  0.19659958  0.83375937     0.89540
O1229       O  0.93552573  0.37607755  0.90382007    -0.74210
O1230       O  0.84455790  0.37643404  0.90992838    -0.75200
O1231       O  0.88976556  0.42132311  0.88087629    -0.63810
O1232       O  0.89036403  0.33141390  0.93641034    -0.72230
O1233       O  0.89343258  0.34562210  0.71066005    -0.71780
O1234       O  0.89110505  0.43335794  0.98987094    -0.63030
O1235       O  0.84559883  0.38874642  0.68550831    -0.75540
O1236       O  0.93908480  0.39002834  0.01143016    -0.74320
Cu1237     Cu  0.89004315  0.37576475  0.90408164     1.04560
Cu1238     Cu  0.89237800  0.38990487  0.68647466     1.04330
C1239       C  0.95191950  0.38320692  0.95502236     0.91980
C1240       C  0.83045260  0.38275939  0.96469740     0.91120
C1241       C  0.88988621  0.44158565  0.92803820     0.83270
C1242       C  0.89207953  0.32447740  0.66597770     0.89540
O1243       O  0.93688251  0.14609022  0.84917166    -0.74210
O1244       O  0.84585866  0.14591213  0.84452368    -0.75200
O1245       O  0.89111137  0.10099796  0.87335944    -0.63810
O1246       O  0.89185990  0.19075709  0.81689487    -0.72230
O1247       O  0.89360503  0.17635013  0.70927540    -0.71780
O1248       O  0.89249648  0.08871744  0.76449812    -0.63030
O1249       O  0.84648051  0.13281136  0.73604567    -0.75540
O1250       O  0.94004176  0.13240000  0.74136194    -0.74320
Cu1251     Cu  0.89143024  0.14649477  0.84965106     1.04560
Cu1252     Cu  0.89323362  0.13209887  0.73402352     1.04330
C1253       C  0.95309749  0.13918379  0.79758704     0.91980
C1254       C  0.83153540  0.13909223  0.79026743     0.91120
C1255       C  0.89125596  0.08063254  0.82641902     0.83270
C1256       C  0.89278019  0.19756699  0.75385644     0.89540
O1257       O  0.63549767  0.58512263  0.76495815    -0.74210
O1258       O  0.63548974  0.67869763  0.76950906    -0.75200
O1259       O  0.59151579  0.63229634  0.74161593    -0.63810
O1260       O  0.67926070  0.63185294  0.79637077    -0.72230
O1261       O  0.69337978  0.63338814  0.68867388    -0.71780
O1262       O  0.60350264  0.63346077  0.63271101    -0.63030
O1263       O  0.64824309  0.67906738  0.66092619    -0.75540
O1264       O  0.64890846  0.58804670  0.65707517    -0.74320
Cu1265     Cu  0.63497132  0.63193801  0.77188667     1.04560
Cu1266     Cu  0.64904524  0.63349007  0.65617586     1.04330
C1267       C  0.64222210  0.57194537  0.70881402     0.91980
C1268       C  0.64162168  0.69351341  0.71517749     0.91120
C1269       C  0.58325388  0.63319486  0.67971866     0.83270
C1270       C  0.70034972  0.63264797  0.75168381     0.89540
O1271       O  0.89269958  0.58599461  0.82729943    -0.74210
O1272       O  0.89176616  0.67947187  0.82102963    -0.75200
O1273       O  0.93613716  0.63384845  0.84987714    -0.63810
O1274       O  0.84844857  0.63184767  0.79498216    -0.72230
O1275       O  0.83429093  0.63481920  0.90251958    -0.71780
O1276       O  0.92410879  0.63517919  0.95880046    -0.63030
O1277       O  0.87938312  0.68052285  0.92979895    -0.75540
O1278       O  0.87879439  0.58943063  0.93485950    -0.74320
Cu1279     Cu  0.89272581  0.63270966  0.81953419     1.04560
Cu1280     Cu  0.87859496  0.63498267  0.93517607     1.04330
C1281       C  0.88581680  0.57308207  0.88344333     0.91980
C1282       C  0.88584634  0.69463165  0.87523641     0.91120
C1283       C  0.94434965  0.63515438  0.91178252     0.83270
C1284       C  0.82733386  0.63321965  0.83956164     0.89540
O1285       O  0.63607066  0.93496804  0.65869157    -0.74210
O1286       O  0.63632962  0.84140918  0.98711128    -0.75200
O1287       O  0.59233202  0.88755416  0.68229256    -0.63810
O1288       O  0.67995743  0.88845405  0.95996419    -0.72230
O1289       O  0.69431490  0.88696452  0.73420421    -0.71780
O1290       O  0.60456848  0.88635200  0.79110625    -0.63030
O1291       O  0.64944381  0.84099250  0.76216411    -0.75540
O1292       O  0.64969085  0.93202393  0.76647476    -0.74320
Cu1293     Cu  0.63570230  0.88815672  0.98491107     1.04560
Cu1294     Cu  0.65005798  0.88658157  0.76714898     1.04330
C1295       C  0.64286547  0.94813398  0.71481950     0.91980
C1296       C  0.64258000  0.82656356  0.70801750     0.91120
C1297       C  0.58422494  0.88645870  0.74425612     0.83270
C1298       C  0.70115142  0.88782500  0.67114333     0.89540
O1299       O  0.89340572  0.93636730  0.92836061    -0.74210
O1300       O  0.89253630  0.84285997  0.93455818    -0.75200
O1301       O  0.93691328  0.88859665  0.90586128    -0.63810
O1302       O  0.84919205  0.89041538  0.96061047    -0.72230
O1303       O  0.83501132  0.88735034  0.85307719    -0.71780
O1304       O  0.92488888  0.88735547  0.79692096    -0.63030
O1305       O  0.88024276  0.84184515  0.82571262    -0.75540
O1306       O  0.87940104  0.93289825  0.82084342    -0.74320
Cu1307     Cu  0.89347811  0.88963885  0.93611198     1.04560
Cu1308     Cu  0.87934014  0.88736759  0.82045816     1.04330
C1309       C  0.88649164  0.94926151  0.87219424     0.91980
C1310       C  0.88659666  0.82771846  0.88032241     0.91120
C1311       C  0.94514386  0.88745735  0.84396740     0.83270
C1312       C  0.82806330  0.88889244  0.91604023     0.89540
C1313       C  0.74109899  0.88260050  0.91376292    -0.14620
C1314       C  0.73363210  0.88810308  0.98203305     0.07530
C1315       C  0.75741518  0.89410582  0.69475615    -0.14620
C1316       C  0.78805142  0.89438020  0.00661741    -0.14620
C1317       C  0.79554193  0.88880152  0.93836558     0.07530
C1318       C  0.77174390  0.88279722  0.89231189    -0.14620
H1319       H  0.72327181  0.87780855  0.87692953     0.11520
H1320       H  0.75222396  0.89906031  0.74713929     0.11520
H1321       H  0.80585540  0.89915695  0.71017887     0.11520
H1322       H  0.77691542  0.87781482  0.83993519     0.11520
C1323       C  0.88657765  0.74469090  0.93806634    -0.14620
C1324       C  0.88658239  0.72867410  0.87611035     0.07530
C1325       C  0.88714433  0.74550836  0.81586556    -0.14620
C1326       C  0.88718311  0.77765756  0.81753873    -0.14620
C1327       C  0.88705529  0.79367405  0.87949009     0.07530
C1328       C  0.88700572  0.77683946  0.93974428    -0.14620
H1329       H  0.88632395  0.73228910  0.98529061     0.11520
H1330       H  0.88719557  0.73379668  0.76763024     0.11520
H1331       H  0.88741391  0.79006187  0.77031625     0.11520
H1332       H  0.88687467  0.78855692  0.98797216     0.11520
C1333       C  0.64180718  0.74475039  0.77382257    -0.14620
C1334       C  0.64110739  0.72754590  0.71384223     0.07530
C1335       C  0.64038109  0.74317133  0.65166168    -0.14620
C1336       C  0.64049388  0.77531233  0.64948134    -0.14620
C1337       C  0.64174887  0.79252271  0.70942968     0.07530
C1338       C  0.64232825  0.77688658  0.77162354    -0.14620
H1339       H  0.64247990  0.73333509  0.82222242     0.11520
H1340       H  0.63957634  0.73045854  0.60466822     0.11520
H1341       H  0.63991446  0.78671188  0.60105927     0.11520
H1342       H  0.64317244  0.78957614  0.81864103     0.11520
C1343       C  0.74033578  0.63843265  0.84213631    -0.14620
C1344       C  0.73285822  0.63278117  0.77391735     0.07530
C1345       C  0.75665507  0.62711518  0.72773688    -0.14620
C1346       C  0.78731816  0.62727932  0.74907940    -0.14620
C1347       C  0.79481000  0.63298383  0.81729564     0.07530
C1348       C  0.77099820  0.63867245  0.86345228    -0.14620
H1349       H  0.72249626  0.64299328  0.87904898     0.11520
H1350       H  0.75146626  0.62210087  0.67536349     0.11520
H1351       H  0.80514182  0.62272925  0.71212628     0.11520
H1352       H  0.77615845  0.64370796  0.91582686     0.11520
C1353       C  0.88113199  0.99546358  0.79969971    -0.14620
C1354       C  0.88695696  0.98316312  0.86405734     0.07530
C1355       C  0.89363170  0.00343701  0.91780400    -0.14620
C1356       C  0.89470628  0.03539192  0.90671234    -0.14620
C1357       C  0.88943890  0.04734355  0.84162366     0.07530
C1358       C  0.88243771  0.02694003  0.78866616    -0.14620
H1359       H  0.87581278  0.98071420  0.75701904     0.11520
H1360       H  0.89820116  0.99462994  0.96797103     0.11520
H1361       H  0.90010415  0.05062275  0.94850656     0.11520
H1362       H  0.87788976  0.03526899  0.73806489     0.11520
C1363       C  0.89341646  0.48696091  0.84816766    -0.14620
C1364       C  0.88818736  0.47491892  0.91317466     0.07530
C1365       C  0.88147595  0.49527793  0.96639537    -0.14620
C1366       C  0.88040545  0.52679252  0.95567752    -0.14620
C1367       C  0.88616930  0.53916792  0.89138048     0.07530
C1368       C  0.89256363  0.51894306  0.83739030    -0.14620
H1369       H  0.89861853  0.47177308  0.80618668     0.11520
H1370       H  0.87699029  0.48688558  0.01695927     0.11520
H1371       H  0.87529564  0.54150897  0.99852763     0.11520
H1372       H  0.89707339  0.52780730  0.78725874     0.11520
C1373       C  0.88679035  0.26805281  0.64201029    -0.14620
C1374       C  0.89246507  0.29195338  0.68812372     0.07530
C1375       C  0.89826460  0.28455709  0.75626425    -0.14620
C1376       C  0.89847818  0.25392259  0.77759393    -0.14620
C1377       C  0.89276687  0.23003973  0.73149696     0.07530
C1378       C  0.88708697  0.23740929  0.66331740    -0.14620
H1379       H  0.88168029  0.27313332  0.92304129     0.11520
H1380       H  0.90282199  0.30243924  0.79319420     0.11520
H1381       H  0.90354136  0.24882206  0.82991191     0.11520
H1382       H  0.88249760  0.21950295  0.62646128     0.11520
C1383       C  0.63477917  0.03416148  0.68006980    -0.14620
C1384       C  0.64063945  0.04632235  0.74490438     0.07530
C1385       C  0.64808417  0.02610326  0.79760141    -0.14620
C1386       C  0.64916020  0.99459756  0.78665224    -0.14620
C1387       C  0.64266988  0.98206925  0.72263464     0.07530
C1388       C  0.63564577  0.00215830  0.66905153    -0.14620
H1389       H  0.62904000  0.04926075  0.63847600     0.11520
H1390       H  0.65310536  0.03459580  0.84798007     0.11520
H1391       H  0.65481935  0.98001090  0.82918727     0.11520
H1392       H  0.63059949  0.99317430  0.61912696     0.11520
C1393       C  0.74959725  0.13801868  0.85573467    -0.14620
C1394       C  0.73251058  0.13792373  0.79568022     0.07530
C1395       C  0.74827131  0.13774237  0.73354040    -0.14620
C1396       C  0.78041228  0.13775794  0.73148312    -0.14620
C1397       C  0.79749729  0.13836422  0.79152912     0.07530
C1398       C  0.78173932  0.13843902  0.85367317    -0.14620
H1399       H  0.73808646  0.13818999  0.90410639     0.11520
H1400       H  0.73566871  0.13746763  0.68646422     0.11520
H1401       H  0.79191803  0.13765732  0.68310418     0.11520
H1402       H  0.79434477  0.13873136  0.90074519     0.11520
C1403       C  0.64854172  0.52547429  0.63703409    -0.14620
C1404       C  0.64204442  0.53800822  0.70103234     0.07530
C1405       C  0.63492032  0.51792849  0.75455271    -0.14620
C1406       C  0.63392025  0.48593336  0.07679625    -0.14620
C1407       C  0.63973155  0.47377948  0.01194619     0.07530
C1408       C  0.64731953  0.49398128  0.62600813    -0.14620
H1409       H  0.65428901  0.54005001  0.59455298     0.11520
H1410       H  0.62986672  0.52691652  0.80446162     0.11520
H1411       H  0.62809306  0.47084021  0.11832662     0.11520
H1412       H  0.65233629  0.48548267  0.57563991     0.11520
C1413       C  0.74738322  0.38184348  0.02258375    -0.14620
C1414       C  0.73145128  0.38267817  0.96064284     0.07530
C1415       C  0.74836156  0.38406506  0.90046519    -0.14620
C1416       C  0.78049291  0.38411893  0.90213676    -0.14620
C1417       C  0.79642585  0.38318373  0.96404055     0.07530
C1418       C  0.77953282  0.38229670  0.02428373    -0.14620
H1419       H  0.73492332  0.38085566  0.73643371     0.11520
H1420       H  0.73672903  0.38484780  0.85223450     0.11520
H1421       H  0.79295189  0.38509306  0.85494757     0.11520
H1422       H  0.79120358  0.38144615  0.73913017     0.11520
C1423       C  0.64164895  0.25297597  0.81001756    -0.14620
C1424       C  0.63668362  0.22912338  0.85626257     0.07530
C1425       C  0.63153243  0.23659029  0.92469102    -0.14620
C1426       C  0.63118956  0.26727134  0.94610182    -0.14620
C1427       C  0.63617649  0.29110911  0.89985854     0.07530
C1428       C  0.64123224  0.28365992  0.83140824    -0.14620
H1429       H  0.64631488  0.24779960  0.75753153     0.11520
H1430       H  0.62754157  0.21874011  0.96174698     0.11520
H1431       H  0.62656227  0.27246995  0.99859676     0.11520
H1432       H  0.64525353  0.30152670  0.79440510     0.11520
C1433       C  0.00723002  0.13209501  0.75192749    -0.14620
C1434       C  0.98701881  0.13886240  0.80560851     0.07530
C1435       C  0.99940679  0.14499455  0.86989146    -0.14620
C1436       C  0.03089300  0.14388366  0.88094502    -0.14620
C1437       C  0.05123886  0.13676137  0.82809711     0.07530
C1438       C  0.03921096  0.13119837  0.76305387    -0.14620
H1439       H  0.99835820  0.12730568  0.70181343     0.11520
H1440       H  0.98472274  0.15041915  0.91253104     0.11520
H1441       H  0.03927097  0.14865587  0.93150624     0.11520
H1442       H  0.05440107  0.12569774  0.72134229     0.11520
C1443       C  0.49897170  0.14262586  0.70695221    -0.14620
C1444       C  0.47870946  0.13557674  0.75990984     0.07530
C1445       C  0.49084698  0.13005793  0.82478746    -0.14620
C1446       C  0.52284451  0.13094644  0.83565201    -0.14620
C1447       C  0.54296946  0.13766712  0.78188049     0.07530
C1448       C  0.53048165  0.14373285  0.71775580    -0.14620
H1449       H  0.49050726  0.14735707  0.65650990     0.11520
H1450       H  0.47572711  0.12460820  0.86657275     0.11520
H1451       H  0.53179589  0.12620783  0.88565388     0.11520
H1452       H  0.54510476  0.14911111  0.67506736     0.11520
C1453       C  0.28836086  0.12691936  0.91504786    -0.14620
C1454       C  0.29581306  0.13258759  0.98330159     0.07530
C1455       C  0.27198859  0.13858281  0.69591086    -0.14620
C1456       C  0.24135408  0.13869637  0.00767422    -0.14620
C1457       C  0.23392434  0.13311122  0.93940003     0.07530
C1458       C  0.25773345  0.12710816  0.89345646    -0.14620
H1459       H  0.30618897  0.12213878  0.87824456     0.11520
H1460       H  0.27712824  0.14362307  0.74828874     0.11520
H1461       H  0.22350493  0.14349768  0.71108397     0.11520
H1462       H  0.25257358  0.12210148  0.84106969     0.11520
C1463       C  0.02944159  0.37994403  0.87028352    -0.14620
C1464       C  0.04996097  0.38571454  0.92364015     0.07530
C1465       C  0.03810287  0.39018066  0.98919643    -0.14620
C1466       C  0.00615368  0.38936478  0.00048658    -0.14620
C1467       C  0.98578562  0.38376906  0.94644416     0.07530
C1468       C  0.99796106  0.37891687  0.88149012    -0.14620
H1469       H  0.03767617  0.37611504  0.81926379     0.11520
H1470       H  0.05341954  0.39469153  0.03127224     0.11520
H1471       H  0.99742702  0.39320707  0.05107652     0.11520
H1472       H  0.98311164  0.37450400  0.83854992     0.11520
C1473       C  0.14182066  0.27812709  0.93609124    -0.14620
C1474       C  0.14216255  0.29376289  0.87391247     0.07530
C1475       C  0.14243690  0.27657008  0.81389919    -0.14620
C1476       C  0.14283827  0.24443113  0.81605584    -0.14620
C1477       C  0.14255360  0.22879385  0.87824716     0.07530
C1478       C  0.14180791  0.24599242  0.93823701    -0.14620
H1479       H  0.14138188  0.29082537  0.98311947     0.11520
H1480       H  0.14275694  0.28799444  0.76549976     0.11520
H1481       H  0.14327098  0.23173573  0.76902490     0.11520
H1482       H  0.14153001  0.23458266  0.98665416     0.11520
C1483       C  0.49795467  0.37739723  0.71570515    -0.14620
C1484       C  0.47774555  0.38458052  0.66270108     0.07530
C1485       C  0.48991063  0.39011414  0.93122448    -0.14620
C1486       C  0.52190033  0.38915622  0.92048478    -0.14620
C1487       C  0.54198145  0.38235312  0.97431775     0.07530
C1488       C  0.52946277  0.37622127  0.70502258    -0.14620
H1489       H  0.48944887  0.37263508  0.76608233     0.11520
H1490       H  0.47482031  0.39565653  0.88941191     0.11520
H1491       H  0.53088177  0.39393917  0.87054882     0.11520
H1492       H  0.54405884  0.37075896  0.74773737     0.11520
C1493       C  0.38673520  0.27679259  0.65108668    -0.14620
C1494       C  0.38670859  0.29278152  0.71308141     0.07530
C1495       C  0.38728979  0.27591430  0.77328368    -0.14620
C1496       C  0.38737417  0.24376111  0.77152213    -0.14620
C1497       C  0.38727482  0.22777598  0.70952517     0.07530
C1498       C  0.38720846  0.24464613  0.64932194    -0.14620
H1499       H  0.38647043  0.28921569  0.60388868     0.11520
H1500       H  0.38731981  0.28760169  0.82154713     0.11520
H1501       H  0.38761389  0.23132839  0.81870936     0.11520
H1502       H  0.38709651  0.23295799  0.60105942     0.11520
C1503       C  0.28731182  0.39459658  0.83952915    -0.14620
C1504       C  0.29481448  0.38885345  0.77134464     0.07530
C1505       C  0.27099198  0.38341064  0.72503198    -0.14620
C1506       C  0.24031703  0.38385299  0.74619039    -0.14620
C1507       C  0.23283075  0.38946714  0.81440776     0.07530
C1508       C  0.25663449  0.39496258  0.86071488    -0.14620
H1509       H  0.30514105  0.39898557  0.87659551     0.11520
H1510       H  0.27615282  0.37838171  0.67266568     0.11520
H1511       H  0.22247670  0.37941461  0.70917609     0.11520
H1512       H  0.25144487  0.39992979  0.91309802     0.11520
C1513       C  0.14795648  0.99517725  0.79078576    -0.14620
C1514       C  0.14038351  0.97503042  0.84350764     0.07530
C1515       C  0.13450303  0.98725707  0.90825813    -0.14620
C1516       C  0.13548087  0.01926246  0.91916683    -0.14620
C1517       C  0.14264135  0.03927939  0.86555896     0.07530
C1518       C  0.14914566  0.02668170  0.80162948    -0.14620
H1519       H  0.15300364  0.98662757  0.74047405     0.11520
H1520       H  0.12866990  0.97220968  0.94986455     0.11520
H1521       H  0.13041950  0.02830467  0.96902504     0.11520
H1522       H  0.15490800  0.04121224  0.75908290     0.11520
C1523       C  0.02257084  0.89026444  0.75315536    -0.14620
C1524       C  0.04272200  0.88358668  0.80694974     0.07530
C1525       C  0.03026670  0.87759723  0.87111227    -0.14620
C1526       C  0.99875829  0.87874171  0.88192366    -0.14620
C1527       C  0.97847271  0.88574851  0.82893208     0.07530
C1528       C  0.99058151  0.89118617  0.76402405    -0.14620
H1529       H  0.03149683  0.89494803  0.70312650     0.11520
H1530       H  0.04491541  0.87225923  0.91381615     0.11520
H1531       H  0.99031268  0.87407356  0.93239031     0.11520
H1532       H  0.97544466  0.89660150  0.72221199     0.11520
C1533       C  0.13951841  0.52669844  0.96575410    -0.14620
C1534       C  0.13721674  0.54735486  0.91160348     0.07530
C1535       C  0.13584532  0.53555288  0.84527682    -0.14620
C1536       C  0.13678632  0.50357409  0.83387434    -0.14620
C1537       C  0.13942599  0.48314225  0.88863777     0.07530
C1538       C  0.14066651  0.49522358  0.95448231    -0.14620
H1539       H  0.14069715  0.53481088  0.01746384     0.11520
H1540       H  0.13398135  0.55097607  0.80261285     0.11520
H1541       H  0.13566063  0.49487056  0.78265090     0.11520
H1542       H  0.14247925  0.48026663  0.99796477     0.11520
C1543       C  0.02182654  0.63271685  0.00241292    -0.14620
C1544       C  0.04185055  0.63981570  0.94870572     0.07530
C1545       C  0.02927326  0.64615746  0.88479536    -0.14620
C1546       C  0.99777575  0.64479193  0.87404400    -0.14620
C1547       C  0.97763543  0.63721938  0.92686006     0.07530
C1548       C  0.98984263  0.63157812  0.99161164    -0.14620
H1549       H  0.03085336  0.62776851  0.71891941     0.11520
H1550       H  0.04381977  0.65187085  0.84219174     0.11520
H1551       H  0.98922475  0.64968237  0.82374226     0.11520
H1552       H  0.97479884  0.62577057  0.03329583     0.11520
C1553       C  0.14258749  0.73780134  0.75654072    -0.14620
C1554       C  0.13688620  0.73035975  0.68831126     0.07530
C1555       C  0.13107401  0.75416754  0.64242965    -0.14620
C1556       C  0.13111230  0.78481156  0.66409783    -0.14620
C1557       C  0.13683013  0.79226309  0.73234279     0.07530
C1558       C  0.14269791  0.76844228  0.77818079    -0.14620
H1559       H  0.14725935  0.71994835  0.79322191     0.11520
H1560       H  0.12600870  0.74899861  0.59006862     0.11520
H1561       H  0.12643489  0.80264980  0.62738848     0.11520
H1562       H  0.14776743  0.77358009  0.83055166     0.11520
C1563       C  0.39472633  0.98603398  0.68141602    -0.14620
C1564       C  0.38920643  0.97404324  0.74635798     0.07530
C1565       C  0.38205386  0.99441821  0.79925561    -0.14620
C1566       C  0.38087655  0.02590786  0.78833504    -0.14620
C1567       C  0.38698438  0.03825130  0.72415525     0.07530
C1568       C  0.39377765  0.01800339  0.67043950    -0.14620
H1569       H  0.40024419  0.97082337  0.63966912     0.11520
H1570       H  0.37730751  0.98605593  0.84973382     0.11520
H1571       H  0.37543957  0.04063183  0.83097883     0.11520
H1572       H  0.39854910  0.02684048  0.62039782     0.11520
C1573       C  0.53893727  0.89023534  0.82467922    -0.14620
C1574       C  0.55093187  0.88477350  0.75959116     0.07530
C1575       C  0.53056376  0.87772514  0.70670044    -0.14620
C1576       C  0.49908572  0.87656691  0.71777425    -0.14620
C1577       C  0.48673334  0.88258113  0.78211814     0.07530
C1578       C  0.50696664  0.88929710  0.83582371    -0.14620
H1579       H  0.55414658  0.89567624  0.86642223     0.11520
H1580       H  0.53891933  0.87302937  0.65610416     0.11520
H1581       H  0.48437976  0.87119336  0.67511325     0.11520
H1582       H  0.49811963  0.89400381  0.88597859     0.11520
C1583       C  0.28140113  0.88274297  0.73448196    -0.14620
C1584       C  0.29723461  0.88306075  0.79656684     0.07530
C1585       C  0.28022086  0.88395863  0.85666441    -0.14620
C1586       C  0.24807873  0.88400947  0.85472843    -0.14620
C1587       C  0.23224609  0.88356904  0.79265362     0.07530
C1588       C  0.24925727  0.88319549  0.73253565    -0.14620
H1589       H  0.29394428  0.88219955  0.68736446     0.11520
H1590       H  0.29178269  0.88428763  0.90500113     0.11520
H1591       H  0.23553170  0.88453105  0.90184309     0.11520
H1592       H  0.23768392  0.88279036  0.68421488     0.11520
C1593       C  0.39323488  0.53452554  0.74019599    -0.14620
C1594       C  0.38815082  0.54645671  0.00835303     0.07530
C1595       C  0.38164495  0.52601074  0.95517253    -0.14620
C1596       C  0.38061465  0.49451773  0.96610634    -0.14620
C1597       C  0.38620882  0.48225283  0.69725954     0.07530
C1598       C  0.39241890  0.50256177  0.75119898    -0.14620
H1599       H  0.39828501  0.54978679  0.78214526     0.11520
H1600       H  0.37728466  0.53431571  0.90447713     0.11520
H1601       H  0.37566001  0.47973116  0.92327743     0.11520
H1602       H  0.39680297  0.49377757  0.80146134     0.11520
C1603       C  0.50614626  0.63189288  0.92054297    -0.14620
C1604       C  0.48572756  0.63675579  0.97478433     0.07530
C1605       C  0.49783281  0.64044321  0.70683352    -0.14620
C1606       C  0.52930052  0.63920489  0.71818150    -0.14620
C1607       C  0.54989803  0.63438730  0.66455171     0.07530
C1608       C  0.53809195  0.63087983  0.93198397    -0.14620
H1609       H  0.49746120  0.62888185  0.86965482     0.11520
H1610       H  0.48292905  0.64417353  0.74995351     0.11520
H1611       H  0.53746447  0.64223904  0.76950443     0.11520
H1612       H  0.55345966  0.62709263  0.88969690     0.11520
C1613       C  0.27933659  0.63782648  0.89715358    -0.14620
C1614       C  0.29633326  0.63800191  0.95733789     0.07530
C1615       C  0.28048293  0.63785014  0.01935749    -0.14620
C1616       C  0.24835189  0.63766944  0.68785901    -0.14620
C1617       C  0.23134651  0.63803283  0.96104427     0.07530
C1618       C  0.24718162  0.63804536  0.89899602    -0.14620
H1619       H  0.29092481  0.63793261  0.84887370     0.11520
H1620       H  0.29300681  0.63777379  0.73320000     0.11520
H1621       H  0.23678625  0.63765598  0.73616835     0.11520
H1622       H  0.23462866  0.63815735  0.85185798     0.11520
C1623       C  0.39816030  0.76742366  0.80998352    -0.14620
C1624       C  0.39262028  0.79128954  0.85622309     0.07530
C1625       C  0.38716087  0.78387980  0.92444983    -0.14620
C1626       C  0.38689877  0.75321960  0.94564619    -0.14620
C1627       C  0.39240250  0.72933525  0.89939782     0.07530
C1628       C  0.39797964  0.73676717  0.83120476    -0.14620
H1629       H  0.40307472  0.77256408  0.75763812     0.11520
H1630       H  0.38271008  0.80176554  0.96143057     0.11520
H1631       H  0.38193381  0.74810436  0.99797774     0.11520
H1632       H  0.40239328  0.71889970  0.79416228     0.11520
loop_ 
_geom_bond_atom_site_label_1 
_geom_bond_atom_site_label_2 
_geom_bond_distance 
_geom_bond_site_symmetry_2 
_ccdc_geom_bond_type 
O1           Cu9   1.982       .  S
O1           C11   1.274       .  A
O2           Cu9   1.978       .  S
O2           C12   1.275       .  A
O3           Cu9   2.033       .  S
O3           C13   1.283       .  A
O4        Cu1097   2.034       .  S
O4         C1102   1.280   1_554  A
O5          Cu10   1.982       .  S
O5           C14   1.276       .  A
O6          Cu10   1.987       .  S
O6           C13   1.274       .  A
O7          Cu10   2.038       .  S
O7           C12   1.281       .  A
O8          Cu10   2.035       .  S
O8           C11   1.283       .  A
Cu9         O548   2.034       .  S
Cu9         Cu10   2.369       .  S
C11         C526   1.480       .  S
C12         C516   1.483       .  S
C13         C539   1.482       .  S
C14         O548   1.280       .  A
C14         C506   1.481       .  S
O15         Cu23   1.984       .  S
O15          C25   1.274       .  A
O16         Cu23   1.976       .  S
O16          C26   1.275       .  A
O17         Cu23   2.033       .  S
O17          C27   1.283       .  A
O18         Cu23   2.034       .  S
O18          C28   1.281       .  A
O19         Cu24   1.982       .  S
O19          C28   1.276       .  A
O20         Cu24   1.987       .  S
O20          C27   1.274       .  A
O21         Cu24   2.040       .  S
O21          C26   1.281       .  A
O22         Cu24   2.033       .  S
O22          C25   1.282       .  A
Cu23        Cu24   2.369       .  S
C25         C496   1.481       .  S
C26         C489   1.483       .  S
C27         C536   1.481       .  S
C28         C476   1.481       .  S
O29         Cu37   1.985       .  S
O29          C39   1.274       .  A
O30         Cu37   1.977       .  S
O30          C40   1.275       .  A
O31         Cu37   2.032       .  S
O31         C585   1.282       .  A
O32         Cu37   2.034       .  S
O32          C42   1.281       .  A
O33        Cu582   1.980       .  S
O33          C42   1.276       .  A
O34         Cu38   1.984       .  S
O34          C41   1.274   1_554  A
O35         Cu38   2.038       .  S
O35        C1128   1.281   1_554  A
O36         Cu38   2.032       .  S
O36        C1127   1.282   1_554  A
Cu37       Cu582   2.369       .  S
Cu38       O1121   1.980   1_554  S
Cu38      Cu1125   2.369   1_554  S
C39         O580   1.282       .  A
C39         C529   1.480       .  S
C40         O579   1.281       .  A
C40         C456   1.483       .  S
C41        O1119   1.282       .  A
C41         C466   1.480   1_556  S
C42         C446   1.482       .  S
O43         Cu51   1.983       .  S
O43          C53   1.274       .  A
O44         Cu51   1.979       .  S
O44          C54   1.275       .  A
O45         Cu51   2.032       .  S
O45          C55   1.282       .  A
O46         Cu51   2.034       .  S
O46          C56   1.280       .  A
O47         Cu52   1.980       .  S
O47          C56   1.276       .  A
O48         Cu52   1.984       .  S
O48          C55   1.274       .  A
O49         Cu52   2.038       .  S
O49          C54   1.281       .  A
O50         Cu52   2.035       .  S
O50          C53   1.283       .  A
Cu51        Cu52   2.369       .  S
C53         C499   1.480       .  S
C54         C436   1.483       .  S
C55         C469   1.481       .  S
C56         C426   1.480       .  S
O57         Cu65   2.038       .  S
O57          C67   1.281       .  A
O58         Cu65   2.035       .  S
O58          C68   1.283       .  A
O59         Cu65   1.981       .  S
O59          C69   1.276       .  A
O60         Cu65   1.986       .  S
O60          C70   1.274       .  A
O61         Cu66   2.032   1_554  S
O61          C70   1.282       .  A
O62         Cu66   2.033       .  S
O62          C69   1.280   1_556  A
O63         Cu66   1.983       .  S
O63          C68   1.274   1_556  A
O64         Cu66   1.979       .  S
O64          C67   1.275   1_556  A
Cu65        Cu66   2.369   1_554  S
C67         C509   1.483       .  S
C68         C406   1.481       .  S
C69         C396   1.480   1_554  S
C70         C416   1.481       .  S
O71         Cu79   2.040       .  S
O71          C81   1.281       .  A
O72         Cu79   2.033       .  S
O72          C82   1.282       .  A
O73         Cu79   1.982       .  S
O73          C83   1.276       .  A
O74         Cu79   1.986       .  S
O74          C84   1.274       .  A
O75         Cu80   2.032       .  S
O75          C84   1.282       .  A
O76         Cu80   2.033       .  S
O76          C83   1.280       .  A
O77         Cu80   1.983       .  S
O77          C82   1.274       .  A
O78         Cu80   1.975       .  S
O78          C81   1.275       .  A
Cu79        Cu80   2.370       .  S
C81         C449   1.482       .  S
C82         C386   1.480       .  S
C83         C376   1.481       .  S
C84         C419   1.480       .  S
O85       Cu1181   2.038       .  S
O85          C95   1.281   1_556  A
O86         Cu93   2.035       .  S
O86         C640   1.283       .  A
O87       Cu1181   1.981   1_554  S
O87          C97   1.276       .  A
O88         Cu93   1.985       .  S
O88         C642   1.274       .  A
O89         Cu94   2.033       .  S
O89          C98   1.283       .  A
O90         Cu94   2.035       .  S
O90          C97   1.281       .  A
O91         Cu94   1.983       .  S
O91          C96   1.274       .  A
O92         Cu94   1.979       .  S
O92          C95   1.275       .  A
Cu93        O629   2.038       .  S
Cu93        O631   1.981       .  S
Cu93       Cu638   2.369       .  S
Cu94      Cu1181   2.369   1_554  S
C95         C479   1.483       .  S
C96        O1174   1.283   1_554  A
C96         C409   1.481       .  S
C97         C356   1.481       .  S
C98        O1176   1.274   1_554  A
C98        C1454   1.481   1_554  S
O99        Cu107   2.033       .  S
O99         C109   1.282       .  A
O100       Cu107   2.039       .  S
O100        C110   1.281       .  A
O101       Cu107   1.986       .  S
O101        C111   1.274       .  A
O102       Cu107   1.982       .  S
O102        C112   1.276       .  A
O103       Cu108   2.034       .  S
O103        C112   1.281       .  A
O104       Cu108   2.032       .  S
O104        C111   1.282       .  A
O105       Cu108   1.976       .  S
O105        C110   1.275       .  A
O106       Cu108   1.984       .  S
O106        C109   1.274       .  A
Cu107      Cu108   2.370       .  S
C109        C389   1.480       .  S
C110        C429   1.483       .  S
C111        C369   1.480       .  S
C112        C349   1.481       .  S
O113       Cu121   1.985       .  S
O113        C123   1.274       .  A
O114       Cu121   1.977       .  S
O114        C124   1.275       .  A
O115       Cu121   2.031       .  S
O115        C125   1.282       .  A
O116      Cu1209   2.034       .  S
O116       C1214   1.280   1_554  A
O117       Cu122   1.981       .  S
O117        C126   1.276       .  A
O118       Cu122   1.986       .  S
O118        C125   1.274       .  A
O119       Cu122   2.038       .  S
O119        C124   1.281       .  A
O120       Cu122   2.031       .  S
O120        C123   1.282       .  A
Cu121       O660   2.034       .  S
Cu121      Cu122   2.370       .  S
C123        C326   1.480       .  S
C124        C399   1.483       .  S
C125        C339   1.480       .  S
C126        O660   1.280       .  A
C126        C319   1.480       .  S
O127       Cu135   1.979       .  S
O127        C137   1.275       .  A
O128       Cu135   1.983       .  S
O128        C138   1.274       .  A
O129       Cu135   2.034       .  S
O129        C139   1.280       .  A
O130       Cu135   2.031       .  S
O130        C140   1.282       .  A
O131       Cu136   1.986       .  S
O131        C140   1.274       .  A
O132       Cu136   1.981       .  S
O132        C139   1.276       .  A
O133       Cu136   2.035       .  S
O133        C138   1.283       .  A
O134       Cu136   2.039       .  S
O134        C137   1.281       .  A
Cu135      Cu136   2.369       .  S
C137        C359   1.483       .  S
C138        C306   1.481       .  S
C139        C296   1.481       .  S
C140        C336   1.481       .  S
O141       Cu149   1.978       .  S
O141        C151   1.275       .  A
O142       Cu149   1.981       .  S
O142        C152   1.274       .  A
O143       Cu149   2.035       .  S
O143        C153   1.281       .  A
O144       Cu149   2.033       .  S
O144        C698   1.283       .  A
O145       Cu150   1.986       .  S
O145        C154   1.274   1_554  A
O146       Cu694   1.982       .  S
O146        C153   1.276       .  A
O147       Cu150   2.035       .  S
O147       C1240   1.283   1_554  A
O148       Cu694   2.038       .  S
O148        C151   1.281       .  A
Cu149      Cu694   2.369       .  S
Cu150      O1234   1.982   1_554  S
Cu150      O1236   2.038       .  S
Cu150     Cu1237   2.369   1_554  S
C151        C379   1.483       .  S
C152        O691   1.283       .  A
C152        C329   1.480       .  S
C153        C276   1.481       .  S
C154       O1232   1.283       .  A
C154        C286   1.482   1_556  S
O155       Cu163   1.976       .  S
O155        C165   1.275       .  A
O156       Cu163   1.984       .  S
O156        C166   1.274       .  A
O157       Cu163   2.034       .  S
O157        C167   1.281       .  A
O158       Cu163   2.033       .  S
O158        C168   1.283       .  A
O159       Cu164   1.987       .  S
O159        C168   1.274       .  A
O160       Cu164   1.982       .  S
O160        C167   1.276       .  A
O161       Cu164   2.034       .  S
O161        C166   1.282       .  A
O162       Cu164   2.040       .  S
O162        C165   1.281       .  A
Cu163      Cu164   2.369       .  S
C165        C346   1.483       .  S
C166        C309   1.481       .  S
C167        C269   1.481       .  S
C168        C289   1.481       .  S
O169       Cu177   2.040       .  S
O169        C179   1.281       .  A
O170       Cu177   2.034       .  S
O170        C180   1.282       .  A
O171       Cu177   1.982       .  S
O171        C181   1.276       .  A
O172       Cu177   1.985       .  S
O172        C182   1.274       .  A
O173       Cu178   2.032   1_554  S
O173        C182   1.282       .  A
O174       Cu178   2.034       .  S
O174        C181   1.281   1_556  A
O175       Cu178   1.984       .  S
O175        C180   1.274   1_556  A
O176       Cu178   1.976       .  S
O176        C179   1.275   1_556  A
Cu177      Cu178   2.369   1_554  S
C179        C316   1.483       .  S
C180        C246   1.480       .  S
C181        C519   1.482   1_554  S
C182        C256   1.480       .  S
O183       Cu191   2.037       .  S
O183        C193   1.281       .  A
O184       Cu191   2.034       .  S
O184        C194   1.282       .  A
O185       Cu191   1.981       .  S
O185        C195   1.276       .  A
O186       Cu191   1.986       .  S
O186        C196   1.274       .  A
O187       Cu192   2.031       .  S
O187        C196   1.282       .  A
O188       Cu192   2.033       .  S
O188        C195   1.280       .  A
O189       Cu192   1.983       .  S
O189        C194   1.274       .  A
O190       Cu192   1.980       .  S
O190        C193   1.276       .  A
Cu191      Cu192   2.369       .  S
C193        C279   1.483       .  S
C194        C236   1.480       .  S
C195        C459   1.480       .  S
C196        C259   1.481       .  S
O197      Cu1293   2.040       .  S
O197        C207   1.281   1_556  A
O198       Cu205   2.033       .  S
O198        C752   1.282       .  A
O199      Cu1293   1.982   1_554  S
O199        C209   1.276       .  A
O200       Cu205   1.987       .  S
O200        C754   1.274       .  A
O201       Cu206   2.032       .  S
O201        C210   1.282       .  A
O202       Cu206   2.034       .  S
O202        C209   1.280       .  A
O203       Cu206   1.984       .  S
O203        C208   1.274       .  A
O204       Cu206   1.976       .  S
O204        C207   1.275       .  A
Cu205       O741   2.040       .  S
Cu205       O743   1.982       .  S
Cu205      Cu750   2.369       .  S
Cu206     Cu1293   2.369   1_554  S
C207        C299   1.483       .  S
C208       O1286   1.282   1_554  A
C208        C249   1.481       .  S
C209        C486   1.481       .  S
C210       O1288   1.274   1_554  A
C210       C1314   1.481   1_554  S
O211       Cu219   2.038       .  S
O211        C221   1.281       .  A
O212       Cu219   2.034       .  S
O212        C222   1.283       .  A
O213       Cu219   1.982       .  S
O213        C223   1.276       .  A
O214       Cu219   1.986       .  S
O214        C224   1.274       .  A
O215       Cu220   2.033       .  S
O215        C224   1.283       .  A
O216       Cu220   2.035       .  S
O216        C223   1.281       .  A
O217       Cu220   1.983       .  S
O217        C222   1.274       .  A
O218       Cu220   1.980       .  S
O218        C221   1.275       .  A
Cu219      Cu220   2.369       .  S
C221        C266   1.483       .  S
C222        C239   1.480       .  S
C223        C439   1.481       .  S
C224        C229   1.482       .  S
C225        C226   1.408       .  A
C225        C230   1.399       .  A
C225        H231   1.083       .  S
C226        C754   1.481       .  S
C226        C771   1.402       .  A
C227       C1314   1.402   1_554  A
C227       C1316   1.398       .  A
C227        H232   1.081       .  S
C228        C229   1.408       .  A
C228        C771   1.398       .  A
C228        H777   1.083       .  S
C229        C230   1.402       .  A
C230        H234   1.081       .  S
H233       C1316   1.083       .  S
C235        C236   1.407       .  A
C235        C240   1.398       .  A
C235        H241   1.080       .  S
C236        C237   1.400       .  A
C237        C238   1.398       .  A
C237        H242   1.080       .  S
C238        C239   1.407       .  A
C238        H243   1.080       .  S
C239        C240   1.400       .  A
C240        H244   1.080       .  S
C245        C246   1.400       .  A
C245        C250   1.398       .  A
C245        H251   1.080       .  S
C246        C247   1.407   1_554  A
C247        C248   1.398       .  A
C247        H252   1.080       .  S
C248        C249   1.401   1_556  A
C248        H253   1.080       .  S
C249        C250   1.407       .  A
C250        H254   1.080       .  S
C255        C256   1.408       .  A
C255        C260   1.398       .  A
C255        H261   1.083       .  S
C256        C257   1.401       .  A
C257        C258   1.398       .  A
C257        H262   1.081       .  S
C258        C259   1.408       .  A
C258        H263   1.083       .  S
C259        C260   1.402       .  A
C260        H264   1.081       .  S
C265        C266   1.405       .  A
C265        C270   1.388   1_565  A
C265        H271   1.083       .  S
C266        C267   1.409   1_565  A
C267        C268   1.408       .  A
C267        H272   1.083   1_545  S
C268        C269   1.408       .  A
C268        H273   1.083       .  S
C269        C270   1.403       .  A
C270        H274   1.083       .  S
C275        C276   1.408       .  A
C275        C280   1.408       .  A
C275        H281   1.083       .  S
C276        C277   1.403       .  A
C277        C278   1.388       .  A
C277        H282   1.083       .  S
C278        C279   1.405       .  A
C278        H283   1.083       .  S
C279        C280   1.408       .  A
C280        H284   1.083       .  S
C285        C286   1.402   1_556  A
C285        C290   1.399       .  A
C285       H1379   1.081       .  S
C286        C287   1.409       .  A
C287        C288   1.398       .  A
C287        H292   1.083       .  S
C288        C289   1.401       .  A
C288        H293   1.081       .  S
C289        C290   1.408   1_554  A
C290        H294   1.083       .  S
H291        C829   1.081       .  S
C295        C296   1.408       .  A
C295        C300   1.408       .  A
C295        H301   1.083   1_554  S
C296        C297   1.403       .  A
C297        C298   1.387   1_545  A
C297        H302   1.083       .  S
C298        C299   1.405       .  A
C298        H303   1.083       .  S
C299        C300   1.409   1_565  A
C300        H304   1.083   1_544  S
C305        C306   1.400       .  A
C305        C310   1.398       .  A
C305        H311   1.080       .  S
C306        C307   1.407       .  A
C307        C308   1.398       .  A
C307        H312   1.080       .  S
C308        C309   1.400       .  A
C308        H313   1.080       .  S
C309        C310   1.407       .  A
C310        H314   1.080       .  S
C315        C316   1.405   1_556  A
C315        C320   1.387       .  A
C315        H321   1.083       .  S
C316        C317   1.409       .  A
C317       C1406   1.408       .  A
C317        H322   1.083       .  S
C318        C319   1.408       .  A
C318        C861   1.408       .  A
C318        H323   1.083       .  S
C319        C864   1.403       .  A
C320       C1407   1.403   1_556  A
C320        H324   1.083       .  S
C325        C326   1.407       .  A
C325        C330   1.398       .  A
C325        H875   1.080       .  S
C326        C327   1.400       .  A
C327        C328   1.397       .  A
C327        H332   1.080       .  S
C328        C329   1.407       .  A
C328        H333   1.080       .  S
C329        C330   1.400       .  A
C330        H878   1.080       .  S
H331       C1413   1.080       .  S
H334       C1418   1.080       .  S
C335        C336   1.402       .  A
C335        C340   1.398       .  A
C335        H341   1.080       .  S
C336        C337   1.408       .  A
C337        C338   1.398       .  A
C337        H342   1.083       .  S
C338        C339   1.401       .  A
C338        H343   1.080       .  S
C339        C340   1.408       .  A
C340        H344   1.083       .  S
C345        C346   1.409   1_455  A
C345        C350   1.408       .  A
C345        H351   1.083   1_455  S
C346        C347   1.405       .  A
C347        C348   1.387   1_655  A
C347        H352   1.083       .  S
C348        C349   1.403       .  A
C348        H353   1.083       .  S
C349        C350   1.408       .  A
C350        H354   1.083       .  S
C355        C356   1.403       .  A
C355        C360   1.387       .  A
C355        H361   1.083   1_554  S
C356        C357   1.408       .  A
C357        C358   1.408       .  A
C357        H362   1.083       .  S
C358        C359   1.409       .  A
C358        H363   1.083       .  S
C359        C360   1.405       .  A
C360        H364   1.083       .  S
C365        C366   1.409       .  A
C365        C370   1.398       .  A
C365        H371   1.083       .  S
C366        C642   1.481       .  S
C366        C911   1.402       .  A
C367       C1454   1.402   1_554  A
C367       C1456   1.398       .  A
C367        H372   1.081       .  S
C368        C369   1.408       .  A
C368        C911   1.398       .  A
C368        H917   1.083       .  S
C369        C370   1.401       .  A
C370        H374   1.081       .  S
H373       C1456   1.083       .  S
C375        C376   1.403       .  A
C375        C380   1.387   1_455  A
C375        H381   1.083       .  S
C376        C377   1.408       .  A
C377        C378   1.408       .  A
C377        H382   1.083       .  S
C378        C379   1.408   1_455  A
C378        H383   1.082   1_455  S
C379        C380   1.404       .  A
C380        H384   1.083       .  S
C385        C386   1.407       .  A
C385        C390   1.398       .  A
C385        H391   1.080       .  S
C386        C387   1.400       .  A
C387        C388   1.398       .  A
C387        H392   1.080       .  S
C388        C389   1.407       .  A
C388        H393   1.080       .  S
C389        C390   1.400       .  A
C390        H394   1.080       .  S
C395        C396   1.403   1_554  A
C395        C400   1.387       .  A
C395        H401   1.083       .  S
C396       C1485   1.408       .  A
C397        C398   1.408       .  A
C397        C940   1.408       .  A
C397        H402   1.083       .  S
C398        C399   1.408       .  A
C398        H403   1.083       .  S
C399        C944   1.405       .  A
C400       C1487   1.405   1_554  A
C400        H404   1.083       .  S
C405        C406   1.407   1_556  A
C405        C410   1.398       .  A
C405        H411   1.080       .  S
C406        C407   1.400       .  A
C407        C408   1.398       .  A
C407        H412   1.080       .  S
C408        C409   1.407       .  A
C408        H413   1.080       .  S
C409        C410   1.400   1_554  A
C410        H414   1.080       .  S
C415        C416   1.409       .  A
C415        C420   1.398       .  A
C415        H421   1.083       .  S
C416        C417   1.402       .  A
C417        C418   1.398       .  A
C417        H422   1.081       .  S
C418        C419   1.408       .  A
C418        H423   1.083       .  S
C419        C420   1.402       .  A
C420        H424   1.081       .  S
C425        C426   1.403       .  A
C425        C430   1.387   1_565  A
C425        H431   1.083       .  S
C426        C427   1.408       .  A
C427        C428   1.408   1_565  A
C427        H432   1.083       .  S
C428        C429   1.409       .  A
C428        H433   1.083       .  S
C429        C430   1.405       .  A
C430        H434   1.083       .  S
C435        C436   1.409       .  A
C435        C440   1.408   1_455  A
C435        H441   1.083       .  S
C436        C437   1.405       .  A
C437        C438   1.388   1_455  A
C437        H442   1.083       .  S
C438        C439   1.403       .  A
C438        H443   1.083       .  S
C439        C440   1.408       .  A
C440        H444   1.083       .  S
C445        C446   1.403       .  A
C445        C450   1.387       .  A
C445        H451   1.082       .  S
C446        C447   1.408       .  A
C447        C448   1.408       .  A
C447        H452   1.082       .  S
C448        C449   1.407       .  A
C448        H453   1.081       .  S
C449        C450   1.403       .  A
C450        H454   1.082       .  S
C455        C456   1.408       .  A
C455        C460   1.408   1_455  A
C455       H1005   1.083       .  S
C456        C457   1.405       .  A
C457        C458   1.387   1_455  A
C457        H462   1.083       .  S
C458        C459   1.403       .  A
C458        H463   1.083       .  S
C459        C460   1.408       .  A
C460        H464   1.083       .  S
H461       C1543   1.083       .  S
C465        C466   1.408       .  A
C465        C470   1.398       .  A
C465        H471   1.083       .  S
C466        C467   1.401   1_554  A
C467        C468   1.398       .  A
C467        H472   1.081       .  S
C468        C469   1.409   1_556  A
C468        H473   1.083       .  S
C469        C470   1.402       .  A
C470        H474   1.081       .  S
C475        C476   1.408       .  A
C475        C480   1.408   1_565  A
C475        H481   1.083   1_554  S
C476        C477   1.403       .  A
C477        C478   1.388   1_565  A
C477        H482   1.083       .  S
C478        C479   1.405       .  A
C478        H483   1.083       .  S
C479        C480   1.409       .  A
C480        H484   1.083   1_554  S
C485        C486   1.408       .  A
C485        C490   1.408       .  A
C485        H491   1.083       .  S
C486        C487   1.403       .  A
C487        C488   1.387       .  A
C487        H492   1.083   1_554  S
C488        C489   1.405       .  A
C488        H493   1.083       .  S
C489        C490   1.408       .  A
C490        H494   1.083       .  S
C495        C496   1.407       .  A
C495        C500   1.398       .  A
C495        H501   1.080       .  S
C496        C497   1.400       .  A
C497        C498   1.398       .  A
C497        H502   1.080       .  S
C498        C499   1.407       .  A
C498        H503   1.080       .  S
C499        C500   1.400       .  A
C500        H504   1.080       .  S
C505        C510   1.408       .  A
C505       C1594   1.408       .  A
C505        H511   1.083       .  S
C506        C507   1.403       .  A
C506       C1049   1.408       .  A
C507        C508   1.388       .  A
C507        H512   1.083       .  S
C508       C1053   1.405       .  A
C508        H513   1.083       .  S
C509        C510   1.408       .  A
C509       C1596   1.405   1_554  A
C510        H514   1.083       .  S
C515        C516   1.408       .  A
C515        C520   1.408       .  A
C515        H521   1.082       .  S
C516       C1061   1.404       .  A
C517        C518   1.387       .  A
C517       C1604   1.404   1_554  A
C517        H522   1.083       .  S
C518        C519   1.403   1_554  A
C518        H523   1.082       .  S
C519       C1608   1.408       .  A
C520       C1063   1.408       .  A
C520        H524   1.083       .  S
C525        C526   1.400       .  A
C525        C530   1.399       .  A
C525        H531   1.080       .  S
C526        C527   1.407       .  A
C527       C1072   1.398       .  A
C527       H1076   1.080       .  S
C528       C1615   1.398       .  A
C528       C1617   1.400   1_554  A
C528        H533   1.080       .  S
C529        C530   1.407       .  A
C529       C1072   1.400       .  A
C530        H534   1.080       .  S
H532       C1615   1.080       .  S
C535        C536   1.402       .  A
C535        C540   1.399       .  A
C535        H541   1.081       .  S
C536        C537   1.408       .  A
C537        C538   1.399       .  A
C537        H542   1.083       .  S
C538        C539   1.402       .  A
C538        H543   1.081       .  S
C539        C540   1.408       .  A
C540        H544   1.083       .  S
O545       Cu553   1.982       .  S
O545        C555   1.274       .  A
O546       Cu553   1.978       .  S
O546        C556   1.275       .  A
O547       Cu553   2.033       .  S
O547        C557   1.283       .  A
O549       Cu554   1.982       .  S
O549        C558   1.276       .  A
O550       Cu554   1.987       .  S
O550        C557   1.274       .  A
O551       Cu554   2.038       .  S
O551        C556   1.281       .  A
O552       Cu554   2.035       .  S
O552        C555   1.283       .  A
Cu553      O1092   2.034       .  S
Cu553      Cu554   2.369       .  S
C555       C1070   1.480       .  S
C556       C1060   1.483       .  S
C557       C1083   1.482       .  S
C558       O1092   1.280       .  A
C558       C1050   1.481       .  S
O559       Cu567   1.984       .  S
O559        C569   1.274       .  A
O560       Cu567   1.976       .  S
O560        C570   1.275       .  A
O561       Cu567   2.033       .  S
O561        C571   1.283       .  A
O562       Cu567   2.034       .  S
O562        C572   1.281       .  A
O563       Cu568   1.982       .  S
O563        C572   1.276       .  A
O564       Cu568   1.987       .  S
O564        C571   1.274       .  A
O565       Cu568   2.040       .  S
O565        C570   1.281       .  A
O566       Cu568   2.033       .  S
O566        C569   1.282       .  A
Cu567      Cu568   2.369       .  S
C569       C1040   1.481       .  S
C570       C1033   1.483       .  S
C571       C1080   1.481       .  S
C572       C1020   1.481       .  S
O573       Cu581   1.985       .  S
O573        C583   1.274       .  A
O574       Cu581   1.977       .  S
O574        C584   1.275       .  A
O575       Cu581   2.032       .  S
O575       C1129   1.282       .  A
O576       Cu581   2.034       .  S
O576        C586   1.281       .  A
O577      Cu1126   1.980       .  S
O577        C586   1.276       .  A
O578       Cu582   1.984       .  S
O578        C585   1.274       .  A
O579       Cu582   2.038       .  S
O580       Cu582   2.032       .  S
Cu581     Cu1126   2.369       .  S
C583       O1124   1.282       .  A
C583       C1073   1.480       .  S
C584       O1123   1.281       .  A
C584       C1000   1.483       .  S
C585       C1010   1.480       .  S
C586        C990   1.482       .  S
O587       Cu595   1.983       .  S
O587        C597   1.274       .  A
O588       Cu595   1.979       .  S
O588        C598   1.275       .  A
O589       Cu595   2.032       .  S
O589        C599   1.282       .  A
O590       Cu595   2.034       .  S
O590        C600   1.280       .  A
O591       Cu596   1.980       .  S
O591        C600   1.276       .  A
O592       Cu596   1.984       .  S
O592        C599   1.274       .  A
O593       Cu596   2.038       .  S
O593        C598   1.281       .  A
O594       Cu596   2.035       .  S
O594        C597   1.283       .  A
Cu595      Cu596   2.369       .  S
C597       C1043   1.480       .  S
C598        C980   1.483       .  S
C599       C1013   1.481       .  S
C600        C970   1.480       .  S
O601       Cu609   2.038       .  S
O601        C611   1.281       .  A
O602       Cu609   2.035       .  S
O602        C612   1.283       .  A
O603       Cu609   1.981       .  S
O603        C613   1.276       .  A
O604       Cu609   1.986       .  S
O604        C614   1.274       .  A
O605       Cu610   2.032       .  S
O605        C614   1.282       .  A
O606       Cu610   2.033       .  S
O606        C613   1.280       .  A
O607       Cu610   1.983       .  S
O607        C612   1.274       .  A
O608       Cu610   1.979       .  S
O608        C611   1.275       .  A
Cu609      Cu610   2.369       .  S
C611       C1053   1.483       .  S
C612        C950   1.481       .  S
C613        C940   1.480       .  S
C614        C960   1.481       .  S
O615       Cu623   2.040       .  S
O615        C625   1.281       .  A
O616       Cu623   2.033       .  S
O616        C626   1.282       .  A
O617       Cu623   1.982       .  S
O617        C627   1.276       .  A
O618       Cu623   1.986       .  S
O618        C628   1.274       .  A
O619       Cu624   2.032       .  S
O619        C628   1.282       .  A
O620       Cu624   2.033       .  S
O620        C627   1.280       .  A
O621       Cu624   1.983       .  S
O621        C626   1.274       .  A
O622       Cu624   1.975       .  S
O622        C625   1.275       .  A
Cu623      Cu624   2.370       .  S
C625        C993   1.482       .  S
C626        C930   1.480       .  S
C627        C920   1.481       .  S
C628        C963   1.480       .  S
O629        C639   1.281       .  A
O630       Cu637   2.035       .  S
O630       C1184   1.283       .  A
O631        C641   1.276       .  A
O632       Cu637   1.985       .  S
O632       C1186   1.274       .  A
O633       Cu638   2.033       .  S
O633        C642   1.283       .  A
O634       Cu638   2.035       .  S
O634        C641   1.281       .  A
O635       Cu638   1.983       .  S
O635        C640   1.274       .  A
O636       Cu638   1.979       .  S
O636        C639   1.275       .  A
Cu637      O1173   2.038       .  S
Cu637      O1175   1.981       .  S
Cu637     Cu1182   2.369       .  S
C639       C1023   1.483       .  S
C640        C953   1.481       .  S
C641        C900   1.481       .  S
O643       Cu651   2.033       .  S
O643        C653   1.282       .  A
O644       Cu651   2.039       .  S
O644        C654   1.281       .  A
O645       Cu651   1.986       .  S
O645        C655   1.274       .  A
O646       Cu651   1.982       .  S
O646        C656   1.276       .  A
O647       Cu652   2.034       .  S
O647        C656   1.281       .  A
O648       Cu652   2.032       .  S
O648        C655   1.282       .  A
O649       Cu652   1.976       .  S
O649        C654   1.275       .  A
O650       Cu652   1.984       .  S
O650        C653   1.274       .  A
Cu651      Cu652   2.370       .  S
C653        C933   1.480       .  S
C654        C973   1.483       .  S
C655        C913   1.480       .  S
C656        C893   1.481       .  S
O657       Cu665   1.985       .  S
O657        C667   1.274       .  A
O658       Cu665   1.977       .  S
O658        C668   1.275       .  A
O659       Cu665   2.031       .  S
O659        C669   1.282       .  A
O661       Cu666   1.981       .  S
O661        C670   1.276       .  A
O662       Cu666   1.986       .  S
O662        C669   1.274       .  A
O663       Cu666   2.038       .  S
O663        C668   1.281       .  A
O664       Cu666   2.031       .  S
O664        C667   1.282       .  A
Cu665      O1204   2.034       .  S
Cu665      Cu666   2.370       .  S
C667        C870   1.480       .  S
C668        C943   1.483       .  S
C669        C883   1.480       .  S
C670       O1204   1.280       .  A
C670        C863   1.480       .  S
O671       Cu679   1.979       .  S
O671        C681   1.275       .  A
O672       Cu679   1.983       .  S
O672        C682   1.274       .  A
O673       Cu679   2.034       .  S
O673        C683   1.280       .  A
O674       Cu679   2.031       .  S
O674        C684   1.282       .  A
O675       Cu680   1.986       .  S
O675        C684   1.274       .  A
O676       Cu680   1.981       .  S
O676        C683   1.276       .  A
O677       Cu680   2.035       .  S
O677        C682   1.283       .  A
O678       Cu680   2.039       .  S
O678        C681   1.281       .  A
Cu679      Cu680   2.369       .  S
C681        C903   1.483       .  S
C682        C850   1.481       .  S
C683        C840   1.481       .  S
C684        C880   1.481       .  S
O685       Cu693   1.978       .  S
O685        C695   1.275       .  A
O686       Cu693   1.981       .  S
O686        C696   1.274       .  A
O687       Cu693   2.035       .  S
O687        C697   1.281       .  A
O688       Cu693   2.033       .  S
O688       C1242   1.283       .  A
O689       Cu694   1.986       .  S
O689        C698   1.274       .  A
O690      Cu1238   1.982       .  S
O690        C697   1.276       .  A
O691       Cu694   2.035       .  S
O692      Cu1238   2.038       .  S
O692        C695   1.281       .  A
Cu693     Cu1238   2.369       .  S
C695        C923   1.483       .  S
C696       O1235   1.283       .  A
C696        C873   1.480       .  S
C697        C820   1.481       .  S
C698        C830   1.482       .  S
O699       Cu707   1.976       .  S
O699        C709   1.275       .  A
O700       Cu707   1.984       .  S
O700        C710   1.274       .  A
O701       Cu707   2.034       .  S
O701        C711   1.281       .  A
O702       Cu707   2.033       .  S
O702        C712   1.283       .  A
O703       Cu708   1.987       .  S
O703        C712   1.274       .  A
O704       Cu708   1.982       .  S
O704        C711   1.276       .  A
O705       Cu708   2.034       .  S
O705        C710   1.282       .  A
O706       Cu708   2.040       .  S
O706        C709   1.281       .  A
Cu707      Cu708   2.369       .  S
C709        C890   1.483       .  S
C710        C853   1.481       .  S
C711        C813   1.481       .  S
C712        C833   1.481       .  S
O713       Cu721   2.040       .  S
O713        C723   1.281       .  A
O714       Cu721   2.034       .  S
O714        C724   1.282       .  A
O715       Cu721   1.982       .  S
O715        C725   1.276       .  A
O716       Cu721   1.985       .  S
O716        C726   1.274       .  A
O717       Cu722   2.032       .  S
O717        C726   1.282       .  A
O718       Cu722   2.034       .  S
O718        C725   1.281       .  A
O719       Cu722   1.984       .  S
O719        C724   1.274       .  A
O720       Cu722   1.976       .  S
O720        C723   1.275       .  A
Cu721      Cu722   2.369       .  S
C723        C860   1.483       .  S
C724        C790   1.480       .  S
C725       C1063   1.482       .  S
C726        C800   1.480       .  S
O727       Cu735   2.037       .  S
O727        C737   1.281       .  A
O728       Cu735   2.034       .  S
O728        C738   1.282       .  A
O729       Cu735   1.981       .  S
O729        C739   1.276       .  A
O730       Cu735   1.986       .  S
O730        C740   1.274       .  A
O731       Cu736   2.031       .  S
O731        C740   1.282       .  A
O732       Cu736   2.033       .  S
O732        C739   1.280       .  A
O733       Cu736   1.983       .  S
O733        C738   1.274       .  A
O734       Cu736   1.980       .  S
O734        C737   1.276       .  A
Cu735      Cu736   2.369       .  S
C737        C823   1.483       .  S
C738        C780   1.480       .  S
C739       C1003   1.480       .  S
C740        C803   1.481       .  S
O741        C751   1.281       .  A
O742       Cu749   2.033       .  S
O742       C1296   1.282       .  A
O743        C753   1.276       .  A
O744       Cu749   1.987       .  S
O744       C1298   1.274       .  A
O745       Cu750   2.032       .  S
O745        C754   1.282       .  A
O746       Cu750   2.034       .  S
O746        C753   1.280       .  A
O747       Cu750   1.984       .  S
O747        C752   1.274       .  A
O748       Cu750   1.976       .  S
O748        C751   1.275       .  A
Cu749      O1285   2.040       .  S
Cu749      O1287   1.982       .  S
Cu749     Cu1294   2.369       .  S
C751        C843   1.483       .  S
C752        C793   1.481       .  S
C753       C1030   1.481       .  S
O755       Cu763   2.038       .  S
O755        C765   1.281       .  A
O756       Cu763   2.034       .  S
O756        C766   1.283       .  A
O757       Cu763   1.982       .  S
O757        C767   1.276       .  A
O758       Cu763   1.986       .  S
O758        C768   1.274       .  A
O759       Cu764   2.033       .  S
O759        C768   1.283       .  A
O760       Cu764   2.035       .  S
O760        C767   1.281       .  A
O761       Cu764   1.983       .  S
O761        C766   1.274       .  A
O762       Cu764   1.980       .  S
O762        C765   1.275       .  A
Cu763      Cu764   2.369       .  S
C765        C810   1.483       .  S
C766        C783   1.480       .  S
C767        C983   1.481       .  S
C768        C773   1.482       .  S
C769        C770   1.408       .  A
C769        C774   1.399       .  A
C769        H775   1.083       .  S
C770       C1298   1.481       .  S
C770       C1315   1.402       .  A
C771        H776   1.081       .  S
C772       C1315   1.398       .  A
C772        C773   1.408       .  A
C772       H1321   1.083       .  S
C773        C774   1.402       .  A
C774        H778   1.081       .  S
C779        C780   1.407       .  A
C779        C784   1.398       .  A
C779        H785   1.080       .  S
C780        C781   1.400       .  A
C781        C782   1.398       .  A
C781        H786   1.080       .  S
C782        C783   1.407       .  A
C782        H787   1.080       .  S
C783        C784   1.400       .  A
C784        H788   1.080       .  S
C789        C790   1.400       .  A
C789        C794   1.398       .  A
C789        H795   1.080       .  S
C790        C791   1.407       .  A
C791        C792   1.398       .  A
C791        H796   1.080       .  S
C792        C793   1.401       .  A
C792        H797   1.080       .  S
C793        C794   1.407       .  A
C794        H798   1.080       .  S
C799        C800   1.408       .  A
C799        C804   1.398       .  A
C799        H805   1.083       .  S
C800        C801   1.401       .  A
C801        C802   1.398       .  A
C801        H806   1.081       .  S
C802        C803   1.408       .  A
C802        H807   1.083       .  S
C803        C804   1.402       .  A
C804        H808   1.081       .  S
C809        C810   1.405       .  A
C809        C814   1.388   1_565  A
C809        H815   1.083       .  S
C810        C811   1.409   1_565  A
C811        C812   1.408       .  A
C811        H816   1.083   1_545  S
C812        C813   1.408       .  A
C812        H817   1.083       .  S
C813        C814   1.403       .  A
C814        H818   1.083       .  S
C819        C820   1.408       .  A
C819        C824   1.408       .  A
C819        H825   1.083       .  S
C820        C821   1.403       .  A
C821        C822   1.388       .  A
C821        H826   1.083       .  S
C822        C823   1.405       .  A
C822        H827   1.083       .  S
C823        C824   1.408       .  A
C824        H828   1.083       .  S
C829        C830   1.402       .  A
C829        C834   1.399       .  A
C830        C831   1.409       .  A
C831        C832   1.398       .  A
C831        H836   1.083       .  S
C832        C833   1.401       .  A
C832        H837   1.081       .  S
C833        C834   1.408       .  A
C834        H838   1.083       .  S
H835       C1373   1.081       .  S
C839        C840   1.408       .  A
C839        C844   1.408       .  A
C839        H845   1.083       .  S
C840        C841   1.403       .  A
C841        C842   1.387   1_545  A
C841        H846   1.083       .  S
C842        C843   1.405       .  A
C842        H847   1.083       .  S
C843        C844   1.409   1_565  A
C844        H848   1.083   1_545  S
C849        C850   1.400       .  A
C849        C854   1.398       .  A
C849        H855   1.080       .  S
C850        C851   1.407       .  A
C851        C852   1.398       .  A
C851        H856   1.080       .  S
C852        C853   1.400       .  A
C852        H857   1.080       .  S
C853        C854   1.407       .  A
C854        H858   1.080       .  S
C859        C860   1.405       .  A
C859        C864   1.387       .  A
C859        H865   1.083       .  S
C860        C861   1.409       .  A
C861        H866   1.083       .  S
C862       C1405   1.408       .  A
C862        C863   1.408       .  A
C862        H867   1.083       .  S
C863       C1408   1.403       .  A
C864        H868   1.083       .  S
C869        C870   1.407       .  A
C869        C874   1.398       .  A
C869       H1419   1.080       .  S
C870        C871   1.400       .  A
C871        C872   1.397       .  A
C871        H876   1.080       .  S
C872        C873   1.407       .  A
C872        H877   1.080       .  S
C873        C874   1.400       .  A
C874       H1422   1.080       .  S
C879        C880   1.402       .  A
C879        C884   1.398       .  A
C879        H885   1.080       .  S
C880        C881   1.408       .  A
C881        C882   1.398       .  A
C881        H886   1.083       .  S
C882        C883   1.401       .  A
C882        H887   1.080       .  S
C883        C884   1.408       .  A
C884        H888   1.083       .  S
C889        C890   1.409   1_455  A
C889        C894   1.408       .  A
C889        H895   1.083   1_455  S
C890        C891   1.405       .  A
C891        C892   1.387   1_655  A
C891        H896   1.083       .  S
C892        C893   1.403       .  A
C892        H897   1.083       .  S
C893        C894   1.408       .  A
C894        H898   1.083       .  S
C899        C900   1.403       .  A
C899        C904   1.387       .  A
C899        H905   1.083       .  S
C900        C901   1.408       .  A
C901        C902   1.408       .  A
C901        H906   1.083       .  S
C902        C903   1.409       .  A
C902        H907   1.083       .  S
C903        C904   1.405       .  A
C904        H908   1.083       .  S
C909        C910   1.409       .  A
C909        C914   1.398       .  A
C909        H915   1.083       .  S
C910       C1186   1.481       .  S
C910       C1455   1.402       .  A
C911        H916   1.081       .  S
C912       C1455   1.398       .  A
C912        C913   1.408       .  A
C912       H1461   1.083       .  S
C913        C914   1.401       .  A
C914        H918   1.081       .  S
C919        C920   1.403       .  A
C919        C924   1.387   1_455  A
C919        H925   1.083       .  S
C920        C921   1.408       .  A
C921        C922   1.408       .  A
C921        H926   1.083       .  S
C922        C923   1.408   1_455  A
C922        H927   1.082   1_455  S
C923        C924   1.404       .  A
C924        H928   1.083       .  S
C929        C930   1.407       .  A
C929        C934   1.398       .  A
C929        H935   1.080       .  S
C930        C931   1.400       .  A
C931        C932   1.398       .  A
C931        H936   1.080       .  S
C932        C933   1.407       .  A
C932        H937   1.080       .  S
C933        C934   1.400       .  A
C934        H938   1.080       .  S
C939        C940   1.403       .  A
C939        C944   1.387       .  A
C939        H945   1.083       .  S
C941       C1484   1.408       .  A
C941        C942   1.408       .  A
C941        H946   1.083       .  S
C942        C943   1.408       .  A
C942        H947   1.083       .  S
C943       C1488   1.405       .  A
C944        H948   1.083       .  S
C949        C950   1.407       .  A
C949        C954   1.398       .  A
C949        H955   1.080       .  S
C950        C951   1.400       .  A
C951        C952   1.398       .  A
C951        H956   1.080       .  S
C952        C953   1.407       .  A
C952        H957   1.080       .  S
C953        C954   1.400       .  A
C954        H958   1.080       .  S
C959        C960   1.409       .  A
C959        C964   1.398       .  A
C959        H965   1.083       .  S
C960        C961   1.402       .  A
C961        C962   1.398       .  A
C961        H966   1.081       .  S
C962        C963   1.408       .  A
C962        H967   1.083       .  S
C963        C964   1.402       .  A
C964        H968   1.081       .  S
C969        C970   1.403       .  A
C969        C974   1.387   1_565  A
C969        H975   1.083       .  S
C970        C971   1.408       .  A
C971        C972   1.408   1_565  A
C971        H976   1.083       .  S
C972        C973   1.409       .  A
C972        H977   1.083       .  S
C973        C974   1.405       .  A
C974        H978   1.083       .  S
C979        C980   1.409       .  A
C979        C984   1.408   1_455  A
C979        H985   1.083       .  S
C980        C981   1.405       .  A
C981        C982   1.388   1_455  A
C981        H986   1.083       .  S
C982        C983   1.403       .  A
C982        H987   1.083       .  S
C983        C984   1.408       .  A
C984        H988   1.083       .  S
C989        C990   1.403       .  A
C989        C994   1.387       .  A
C989        H995   1.082       .  S
C990        C991   1.408       .  A
C991        C992   1.408       .  A
C991        H996   1.082       .  S
C992        C993   1.407       .  A
C992        H997   1.081       .  S
C993        C994   1.403       .  A
C994        H998   1.082       .  S
C999       C1000   1.408       .  A
C999       C1004   1.408   1_455  A
C999       H1549   1.083       .  S
C1000      C1001   1.405       .  A
C1001      C1002   1.387   1_455  A
C1001      H1006   1.083       .  S
C1002      C1003   1.403       .  A
C1002      H1007   1.083       .  S
C1003      C1004   1.408       .  A
C1004      H1008   1.083       .  S
C1009      C1010   1.408       .  A
C1009      C1014   1.398       .  A
C1009      H1015   1.083       .  S
C1010      C1011   1.401       .  A
C1011      C1012   1.398       .  A
C1011      H1016   1.081       .  S
C1012      C1013   1.409       .  A
C1012      H1017   1.083       .  S
C1013      C1014   1.402       .  A
C1014      H1018   1.081       .  S
C1019      C1020   1.408       .  A
C1019      C1024   1.408   1_565  A
C1019      H1025   1.083       .  S
C1020      C1021   1.403       .  A
C1021      C1022   1.388   1_565  A
C1021      H1026   1.083       .  S
C1022      C1023   1.405       .  A
C1022      H1027   1.083       .  S
C1023      C1024   1.409       .  A
C1024      H1028   1.083       .  S
C1029      C1030   1.408       .  A
C1029      C1034   1.408       .  A
C1029      H1035   1.083       .  S
C1030      C1031   1.403       .  A
C1031      C1032   1.387       .  A
C1031      H1036   1.083       .  S
C1032      C1033   1.405       .  A
C1032      H1037   1.083       .  S
C1033      C1034   1.408       .  A
C1034      H1038   1.083       .  S
C1039      C1040   1.407       .  A
C1039      C1044   1.398       .  A
C1039      H1045   1.080       .  S
C1040      C1041   1.400       .  A
C1041      C1042   1.398       .  A
C1041      H1046   1.080       .  S
C1042      C1043   1.407       .  A
C1042      H1047   1.080       .  S
C1043      C1044   1.400       .  A
C1044      H1048   1.080       .  S
C1049      C1054   1.408       .  A
C1049      H1055   1.083       .  S
C1050      C1593   1.408       .  A
C1050      C1051   1.403       .  A
C1051      C1052   1.388       .  A
C1051      H1056   1.083       .  S
C1052      C1597   1.405       .  A
C1052      H1057   1.083       .  S
C1053      C1054   1.408       .  A
C1054      H1058   1.083       .  S
C1059      C1060   1.408       .  A
C1059      C1064   1.408       .  A
C1059      H1065   1.082       .  S
C1060      C1605   1.404       .  A
C1061      C1062   1.387       .  A
C1061      H1066   1.083       .  S
C1062      C1063   1.403       .  A
C1062      H1067   1.082       .  S
C1064      C1607   1.408       .  A
C1064      H1068   1.083       .  S
C1069      C1070   1.400       .  A
C1069      C1074   1.399       .  A
C1069      H1075   1.080       .  S
C1070      C1071   1.407       .  A
C1071      C1616   1.398       .  A
C1071      H1620   1.080       .  S
C1072      H1077   1.080       .  S
C1073      C1616   1.400       .  A
C1073      C1074   1.407       .  A
C1074      H1078   1.080       .  S
C1079      C1080   1.402       .  A
C1079      C1084   1.399       .  A
C1079      H1085   1.081       .  S
C1080      C1081   1.408       .  A
C1081      C1082   1.399       .  A
C1081      H1086   1.083       .  S
C1082      C1083   1.402       .  A
C1082      H1087   1.081       .  S
C1083      C1084   1.408       .  A
C1084      H1088   1.083       .  S
O1089     Cu1097   1.982       .  S
O1089      C1099   1.274   1_554  A
O1090     Cu1097   1.978       .  S
O1090      C1100   1.275   1_554  A
O1091     Cu1097   2.033   1_556  S
O1091      C1101   1.283       .  A
O1093     Cu1098   1.982       .  S
O1093      C1102   1.276       .  A
O1094     Cu1098   1.987       .  S
O1094      C1101   1.274       .  A
O1095     Cu1098   2.038       .  S
O1095      C1100   1.281       .  A
O1096     Cu1098   2.035       .  S
O1096      C1099   1.283       .  A
Cu1097    Cu1098   2.369   1_554  S
C1099      C1614   1.480       .  S
C1100      C1604   1.483       .  S
C1101      C1627   1.482       .  S
C1102      C1594   1.481   1_556  S
O1103     Cu1111   1.984       .  S
O1103      C1113   1.274       .  A
O1104     Cu1111   1.976       .  S
O1104      C1114   1.275       .  A
O1105     Cu1111   2.033       .  S
O1105      C1115   1.283       .  A
O1106     Cu1111   2.034       .  S
O1106      C1116   1.281       .  A
O1107     Cu1112   1.982       .  S
O1107      C1116   1.276       .  A
O1108     Cu1112   1.987       .  S
O1108      C1115   1.274       .  A
O1109     Cu1112   2.040       .  S
O1109      C1114   1.281       .  A
O1110     Cu1112   2.033       .  S
O1110      C1113   1.282       .  A
Cu1111    Cu1112   2.369       .  S
C1113      C1584   1.481       .  S
C1114      C1577   1.483       .  S
C1115      C1624   1.481       .  S
C1116      C1564   1.481       .  S
O1117     Cu1125   1.985       .  S
O1117      C1127   1.274       .  A
O1118     Cu1125   1.977       .  S
O1118      C1128   1.275       .  A
O1119     Cu1125   2.032       .  S
O1120     Cu1125   2.034       .  S
O1120      C1130   1.281       .  A
O1121      C1130   1.276       .  A
O1122     Cu1126   1.984       .  S
O1122      C1129   1.274       .  A
O1123     Cu1126   2.038       .  S
O1124     Cu1126   2.032       .  S
C1127      C1617   1.480       .  S
C1128      C1544   1.483       .  S
C1129      C1554   1.480       .  S
C1130      C1534   1.482       .  S
O1131     Cu1139   1.983       .  S
O1131      C1141   1.274       .  A
O1132     Cu1139   1.979       .  S
O1132      C1142   1.275       .  A
O1133     Cu1139   2.032       .  S
O1133      C1143   1.282       .  A
O1134     Cu1139   2.034       .  S
O1134      C1144   1.280       .  A
O1135     Cu1140   1.980       .  S
O1135      C1144   1.276       .  A
O1136     Cu1140   1.984       .  S
O1136      C1143   1.274       .  A
O1137     Cu1140   2.038       .  S
O1137      C1142   1.281       .  A
O1138     Cu1140   2.035       .  S
O1138      C1141   1.283       .  A
Cu1139    Cu1140   2.369       .  S
C1141      C1587   1.480       .  S
C1142      C1524   1.483       .  S
C1143      C1557   1.481       .  S
C1144      C1514   1.480       .  S
O1145     Cu1153   2.038       .  S
O1145      C1155   1.281       .  A
O1146     Cu1153   2.035       .  S
O1146      C1156   1.283       .  A
O1147     Cu1153   1.981       .  S
O1147      C1157   1.276       .  A
O1148     Cu1153   1.986       .  S
O1148      C1158   1.274       .  A
O1149     Cu1154   2.032       .  S
O1149      C1158   1.282       .  A
O1150     Cu1154   2.033       .  S
O1150      C1157   1.280       .  A
O1151     Cu1154   1.983       .  S
O1151      C1156   1.274       .  A
O1152     Cu1154   1.979       .  S
O1152      C1155   1.275       .  A
Cu1153    Cu1154   2.369       .  S
C1155      C1597   1.483       .  S
C1156      C1494   1.481       .  S
C1157      C1484   1.480       .  S
C1158      C1504   1.481       .  S
O1159     Cu1167   2.040       .  S
O1159      C1169   1.281       .  A
O1160     Cu1167   2.033       .  S
O1160      C1170   1.282       .  A
O1161     Cu1167   1.982       .  S
O1161      C1171   1.276       .  A
O1162     Cu1167   1.986       .  S
O1162      C1172   1.274       .  A
O1163     Cu1168   2.032       .  S
O1163      C1172   1.282       .  A
O1164     Cu1168   2.033       .  S
O1164      C1171   1.280       .  A
O1165     Cu1168   1.983       .  S
O1165      C1170   1.274       .  A
O1166     Cu1168   1.975       .  S
O1166      C1169   1.275       .  A
Cu1167    Cu1168   2.370       .  S
C1169      C1537   1.482       .  S
C1170      C1474   1.480       .  S
C1171      C1464   1.481       .  S
C1172      C1507   1.480       .  S
O1173      C1183   1.281       .  A
O1174     Cu1181   2.035       .  S
O1175      C1185   1.276       .  A
O1176     Cu1181   1.985       .  S
O1177     Cu1182   2.033       .  S
O1177      C1186   1.283       .  A
O1178     Cu1182   2.035       .  S
O1178      C1185   1.281       .  A
O1179     Cu1182   1.983       .  S
O1179      C1184   1.274       .  A
O1180     Cu1182   1.979       .  S
O1180      C1183   1.275       .  A
C1183      C1567   1.483       .  S
C1184      C1497   1.481       .  S
C1185      C1444   1.481       .  S
O1187     Cu1195   2.033       .  S
O1187      C1197   1.282       .  A
O1188     Cu1195   2.039       .  S
O1188      C1198   1.281       .  A
O1189     Cu1195   1.986       .  S
O1189      C1199   1.274       .  A
O1190     Cu1195   1.982       .  S
O1190      C1200   1.276       .  A
O1191     Cu1196   2.034       .  S
O1191      C1200   1.281       .  A
O1192     Cu1196   2.032       .  S
O1192      C1199   1.282       .  A
O1193     Cu1196   1.976       .  S
O1193      C1198   1.275       .  A
O1194     Cu1196   1.984       .  S
O1194      C1197   1.274       .  A
Cu1195    Cu1196   2.370       .  S
C1197      C1477   1.480       .  S
C1198      C1517   1.483       .  S
C1199      C1457   1.480       .  S
C1200      C1437   1.481       .  S
O1201     Cu1209   1.985       .  S
O1201      C1211   1.274   1_554  A
O1202     Cu1209   1.977       .  S
O1202      C1212   1.275   1_554  A
O1203     Cu1209   2.031   1_556  S
O1203      C1213   1.282       .  A
O1205     Cu1210   1.981       .  S
O1205      C1214   1.276       .  A
O1206     Cu1210   1.986       .  S
O1206      C1213   1.274       .  A
O1207     Cu1210   2.038       .  S
O1207      C1212   1.281       .  A
O1208     Cu1210   2.031       .  S
O1208      C1211   1.282       .  A
Cu1209    Cu1210   2.370   1_554  S
C1211      C1414   1.480       .  S
C1212      C1487   1.483       .  S
C1213      C1427   1.480       .  S
C1214      C1407   1.480   1_556  S
O1215     Cu1223   1.979       .  S
O1215      C1225   1.275       .  A
O1216     Cu1223   1.983       .  S
O1216      C1226   1.274       .  A
O1217     Cu1223   2.034       .  S
O1217      C1227   1.280       .  A
O1218     Cu1223   2.031       .  S
O1218      C1228   1.282       .  A
O1219     Cu1224   1.986       .  S
O1219      C1228   1.274       .  A
O1220     Cu1224   1.981       .  S
O1220      C1227   1.276       .  A
O1221     Cu1224   2.035       .  S
O1221      C1226   1.283       .  A
O1222     Cu1224   2.039       .  S
O1222      C1225   1.281       .  A
Cu1223    Cu1224   2.369       .  S
C1225      C1447   1.483       .  S
C1226      C1394   1.481       .  S
C1227      C1384   1.481       .  S
C1228      C1424   1.481       .  S
O1229     Cu1237   1.978       .  S
O1229      C1239   1.275       .  A
O1230     Cu1237   1.981       .  S
O1230      C1240   1.274       .  A
O1231     Cu1237   2.035       .  S
O1231      C1241   1.281       .  A
O1232     Cu1237   2.033       .  S
O1233     Cu1238   1.986       .  S
O1233      C1242   1.274       .  A
O1234      C1241   1.276       .  A
O1235     Cu1238   2.035       .  S
O1236      C1239   1.281   1_554  A
C1239      C1467   1.483       .  S
C1240      C1417   1.480       .  S
C1241      C1364   1.481       .  S
C1242      C1374   1.482       .  S
O1243     Cu1251   1.976       .  S
O1243      C1253   1.275       .  A
O1244     Cu1251   1.984       .  S
O1244      C1254   1.274       .  A
O1245     Cu1251   2.034       .  S
O1245      C1255   1.281       .  A
O1246     Cu1251   2.033       .  S
O1246      C1256   1.283       .  A
O1247     Cu1252   1.987       .  S
O1247      C1256   1.274       .  A
O1248     Cu1252   1.982       .  S
O1248      C1255   1.276       .  A
O1249     Cu1252   2.034       .  S
O1249      C1254   1.282       .  A
O1250     Cu1252   2.040       .  S
O1250      C1253   1.281       .  A
Cu1251    Cu1252   2.369       .  S
C1253      C1434   1.483       .  S
C1254      C1397   1.481       .  S
C1255      C1357   1.481       .  S
C1256      C1377   1.481       .  S
O1257     Cu1265   2.040       .  S
O1257      C1267   1.281       .  A
O1258     Cu1265   2.034       .  S
O1258      C1268   1.282       .  A
O1259     Cu1265   1.982       .  S
O1259      C1269   1.276       .  A
O1260     Cu1265   1.985       .  S
O1260      C1270   1.274       .  A
O1261     Cu1266   2.032       .  S
O1261      C1270   1.282       .  A
O1262     Cu1266   2.034       .  S
O1262      C1269   1.281       .  A
O1263     Cu1266   1.984       .  S
O1263      C1268   1.274       .  A
O1264     Cu1266   1.976       .  S
O1264      C1267   1.275       .  A
Cu1265    Cu1266   2.369       .  S
C1267      C1404   1.483       .  S
C1268      C1334   1.480       .  S
C1269      C1607   1.482       .  S
C1270      C1344   1.480       .  S
O1271     Cu1279   2.037       .  S
O1271      C1281   1.281       .  A
O1272     Cu1279   2.034       .  S
O1272      C1282   1.282       .  A
O1273     Cu1279   1.981       .  S
O1273      C1283   1.276       .  A
O1274     Cu1279   1.986       .  S
O1274      C1284   1.274       .  A
O1275     Cu1280   2.031       .  S
O1275      C1284   1.282       .  A
O1276     Cu1280   2.033       .  S
O1276      C1283   1.280       .  A
O1277     Cu1280   1.983       .  S
O1277      C1282   1.274       .  A
O1278     Cu1280   1.980       .  S
O1278      C1281   1.276       .  A
Cu1279    Cu1280   2.369       .  S
C1281      C1367   1.483       .  S
C1282      C1324   1.480       .  S
C1283      C1547   1.480       .  S
C1284      C1347   1.481       .  S
O1285      C1295   1.281       .  A
O1286     Cu1293   2.033       .  S
O1287      C1297   1.276       .  A
O1288     Cu1293   1.987       .  S
O1289     Cu1294   2.032       .  S
O1289      C1298   1.282       .  A
O1290     Cu1294   2.034       .  S
O1290      C1297   1.280       .  A
O1291     Cu1294   1.984       .  S
O1291      C1296   1.274       .  A
O1292     Cu1294   1.976       .  S
O1292      C1295   1.275       .  A
C1295      C1387   1.483       .  S
C1296      C1337   1.481       .  S
C1297      C1574   1.481       .  S
O1299     Cu1307   2.038       .  S
O1299      C1309   1.281       .  A
O1300     Cu1307   2.034       .  S
O1300      C1310   1.283       .  A
O1301     Cu1307   1.982       .  S
O1301      C1311   1.276       .  A
O1302     Cu1307   1.986       .  S
O1302      C1312   1.274       .  A
O1303     Cu1308   2.033       .  S
O1303      C1312   1.283       .  A
O1304     Cu1308   2.035       .  S
O1304      C1311   1.281       .  A
O1305     Cu1308   1.983       .  S
O1305      C1310   1.274       .  A
O1306     Cu1308   1.980       .  S
O1306      C1309   1.275       .  A
Cu1307    Cu1308   2.369       .  S
C1309      C1354   1.483       .  S
C1310      C1327   1.480       .  S
C1311      C1527   1.481       .  S
C1312      C1317   1.482       .  S
C1313      C1314   1.408       .  A
C1313      C1318   1.399       .  A
C1313      H1319   1.083       .  S
C1315      H1320   1.081       .  S
C1316      C1317   1.408   1_554  A
C1317      C1318   1.402       .  A
C1318      H1322   1.081       .  S
C1323      C1324   1.407       .  A
C1323      C1328   1.398       .  A
C1323      H1329   1.080       .  S
C1324      C1325   1.400       .  A
C1325      C1326   1.398       .  A
C1325      H1330   1.080       .  S
C1326      C1327   1.407       .  A
C1326      H1331   1.080       .  S
C1327      C1328   1.400       .  A
C1328      H1332   1.080       .  S
C1333      C1334   1.400       .  A
C1333      C1338   1.398       .  A
C1333      H1339   1.080       .  S
C1334      C1335   1.407       .  A
C1335      C1336   1.398       .  A
C1335      H1340   1.080       .  S
C1336      C1337   1.401       .  A
C1336      H1341   1.080       .  S
C1337      C1338   1.407       .  A
C1338      H1342   1.080       .  S
C1343      C1344   1.408       .  A
C1343      C1348   1.398       .  A
C1343      H1349   1.083       .  S
C1344      C1345   1.401       .  A
C1345      C1346   1.398       .  A
C1345      H1350   1.081       .  S
C1346      C1347   1.408       .  A
C1346      H1351   1.083       .  S
C1347      C1348   1.402       .  A
C1348      H1352   1.081       .  S
C1353      C1354   1.405       .  A
C1353      C1358   1.388   1_565  A
C1353      H1359   1.083       .  S
C1354      C1355   1.409   1_565  A
C1355      C1356   1.408       .  A
C1355      H1360   1.083   1_545  S
C1356      C1357   1.408       .  A
C1356      H1361   1.083       .  S
C1357      C1358   1.403       .  A
C1358      H1362   1.083       .  S
C1363      C1364   1.408       .  A
C1363      C1368   1.408       .  A
C1363      H1369   1.083       .  S
C1364      C1365   1.403       .  A
C1365      C1366   1.388       .  A
C1365      H1370   1.083   1_556  S
C1366      C1367   1.405       .  A
C1366      H1371   1.083       .  S
C1367      C1368   1.408       .  A
C1368      H1372   1.083       .  S
C1373      C1374   1.402       .  A
C1373      C1378   1.399       .  A
C1374      C1375   1.409       .  A
C1375      C1376   1.398       .  A
C1375      H1380   1.083       .  S
C1376      C1377   1.401       .  A
C1376      H1381   1.081       .  S
C1377      C1378   1.408       .  A
C1378      H1382   1.083       .  S
C1383      C1384   1.408       .  A
C1383      C1388   1.408       .  A
C1383      H1389   1.083       .  S
C1384      C1385   1.403       .  A
C1385      C1386   1.387   1_545  A
C1385      H1390   1.083       .  S
C1386      C1387   1.405       .  A
C1386      H1391   1.083       .  S
C1387      C1388   1.409   1_565  A
C1388      H1392   1.083   1_545  S
C1393      C1394   1.400       .  A
C1393      C1398   1.398       .  A
C1393      H1399   1.080       .  S
C1394      C1395   1.407       .  A
C1395      C1396   1.398       .  A
C1395      H1400   1.080       .  S
C1396      C1397   1.400       .  A
C1396      H1401   1.080       .  S
C1397      C1398   1.407       .  A
C1398      H1402   1.080       .  S
C1403      C1404   1.405       .  A
C1403      C1408   1.387       .  A
C1403      H1409   1.083       .  S
C1404      C1405   1.409       .  A
C1405      H1410   1.083       .  S
C1406      C1407   1.408       .  A
C1406      H1411   1.083       .  S
C1408      H1412   1.083       .  S
C1413      C1414   1.407   1_554  A
C1413      C1418   1.398       .  A
C1414      C1415   1.400       .  A
C1415      C1416   1.397       .  A
C1415      H1420   1.080       .  S
C1416      C1417   1.407       .  A
C1416      H1421   1.080       .  S
C1417      C1418   1.400   1_556  A
C1423      C1424   1.402       .  A
C1423      C1428   1.398       .  A
C1423      H1429   1.080       .  S
C1424      C1425   1.408       .  A
C1425      C1426   1.398       .  A
C1425      H1430   1.083       .  S
C1426      C1427   1.401       .  A
C1426      H1431   1.080       .  S
C1427      C1428   1.408       .  A
C1428      H1432   1.083       .  S
C1433      C1434   1.409   1_455  A
C1433      C1438   1.408       .  A
C1433      H1439   1.083   1_455  S
C1434      C1435   1.405       .  A
C1435      C1436   1.387   1_655  A
C1435      H1440   1.083       .  S
C1436      C1437   1.403       .  A
C1436      H1441   1.083       .  S
C1437      C1438   1.408       .  A
C1438      H1442   1.083       .  S
C1443      C1444   1.403       .  A
C1443      C1448   1.387       .  A
C1443      H1449   1.083       .  S
C1444      C1445   1.408       .  A
C1445      C1446   1.408       .  A
C1445      H1450   1.083       .  S
C1446      C1447   1.409       .  A
C1446      H1451   1.083       .  S
C1447      C1448   1.405       .  A
C1448      H1452   1.083       .  S
C1453      C1454   1.409       .  A
C1453      C1458   1.398       .  A
C1453      H1459   1.083       .  S
C1455      H1460   1.081       .  S
C1456      C1457   1.408   1_554  A
C1457      C1458   1.401       .  A
C1458      H1462   1.081       .  S
C1463      C1464   1.403       .  A
C1463      C1468   1.387   1_455  A
C1463      H1469   1.083       .  S
C1464      C1465   1.408       .  A
C1465      C1466   1.408   1_556  A
C1465      H1470   1.083   1_556  S
C1466      C1467   1.408   1_454  A
C1466      H1471   1.082   1_455  S
C1467      C1468   1.404       .  A
C1468      H1472   1.083       .  S
C1473      C1474   1.407       .  A
C1473      C1478   1.398       .  A
C1473      H1479   1.080       .  S
C1474      C1475   1.400       .  A
C1475      C1476   1.398       .  A
C1475      H1480   1.080       .  S
C1476      C1477   1.407       .  A
C1476      H1481   1.080       .  S
C1477      C1478   1.400       .  A
C1478      H1482   1.080       .  S
C1483      C1484   1.403       .  A
C1483      C1488   1.387       .  A
C1483      H1489   1.083       .  S
C1485      C1486   1.408       .  A
C1485      H1490   1.083       .  S
C1486      C1487   1.408       .  A
C1486      H1491   1.083       .  S
C1488      H1492   1.083       .  S
C1493      C1494   1.407       .  A
C1493      C1498   1.398       .  A
C1493      H1499   1.080       .  S
C1494      C1495   1.400       .  A
C1495      C1496   1.398       .  A
C1495      H1500   1.080       .  S
C1496      C1497   1.407       .  A
C1496      H1501   1.080       .  S
C1497      C1498   1.400       .  A
C1498      H1502   1.080       .  S
C1503      C1504   1.409       .  A
C1503      C1508   1.398       .  A
C1503      H1509   1.083       .  S
C1504      C1505   1.402       .  A
C1505      C1506   1.398       .  A
C1505      H1510   1.081       .  S
C1506      C1507   1.408       .  A
C1506      H1511   1.083       .  S
C1507      C1508   1.402       .  A
C1508      H1512   1.081       .  S
C1513      C1514   1.403       .  A
C1513      C1518   1.387   1_565  A
C1513      H1519   1.083       .  S
C1514      C1515   1.408       .  A
C1515      C1516   1.408   1_565  A
C1515      H1520   1.083       .  S
C1516      C1517   1.409       .  A
C1516      H1521   1.083       .  S
C1517      C1518   1.405       .  A
C1518      H1522   1.083       .  S
C1523      C1524   1.409       .  A
C1523      C1528   1.408   1_455  A
C1523      H1529   1.083       .  S
C1524      C1525   1.405       .  A
C1525      C1526   1.388   1_455  A
C1525      H1530   1.083       .  S
C1526      C1527   1.403       .  A
C1526      H1531   1.083       .  S
C1527      C1528   1.408       .  A
C1528      H1532   1.083       .  S
C1533      C1534   1.403       .  A
C1533      C1538   1.387       .  A
C1533      H1539   1.082   1_556  S
C1534      C1535   1.408       .  A
C1535      C1536   1.408       .  A
C1535      H1540   1.082       .  S
C1536      C1537   1.407       .  A
C1536      H1541   1.081       .  S
C1537      C1538   1.403       .  A
C1538      H1542   1.082       .  S
C1543      C1544   1.408   1_554  A
C1543      C1548   1.408   1_454  A
C1544      C1545   1.405       .  A
C1545      C1546   1.387   1_455  A
C1545      H1550   1.083       .  S
C1546      C1547   1.403       .  A
C1546      H1551   1.083       .  S
C1547      C1548   1.408       .  A
C1548      H1552   1.083   1_556  S
C1553      C1554   1.408       .  A
C1553      C1558   1.398       .  A
C1553      H1559   1.083       .  S
C1554      C1555   1.401       .  A
C1555      C1556   1.398       .  A
C1555      H1560   1.081       .  S
C1556      C1557   1.409       .  A
C1556      H1561   1.083       .  S
C1557      C1558   1.402       .  A
C1558      H1562   1.081       .  S
C1563      C1564   1.408       .  A
C1563      C1568   1.408   1_565  A
C1563      H1569   1.083       .  S
C1564      C1565   1.403       .  A
C1565      C1566   1.388   1_565  A
C1565      H1570   1.083       .  S
C1566      C1567   1.405       .  A
C1566      H1571   1.083       .  S
C1567      C1568   1.409       .  A
C1568      H1572   1.083       .  S
C1573      C1574   1.408       .  A
C1573      C1578   1.408       .  A
C1573      H1579   1.083       .  S
C1574      C1575   1.403       .  A
C1575      C1576   1.387       .  A
C1575      H1580   1.083       .  S
C1576      C1577   1.405       .  A
C1576      H1581   1.083       .  S
C1577      C1578   1.408       .  A
C1578      H1582   1.083       .  S
C1583      C1584   1.407       .  A
C1583      C1588   1.398       .  A
C1583      H1589   1.080       .  S
C1584      C1585   1.400       .  A
C1585      C1586   1.398       .  A
C1585      H1590   1.080       .  S
C1586      C1587   1.407       .  A
C1586      H1591   1.080       .  S
C1587      C1588   1.400       .  A
C1588      H1592   1.080       .  S
C1593      C1598   1.408       .  A
C1593      H1599   1.083       .  S
C1594      C1595   1.403   1_554  A
C1595      C1596   1.388       .  A
C1595      H1600   1.083       .  S
C1596      H1601   1.083       .  S
C1597      C1598   1.408       .  A
C1598      H1602   1.083       .  S
C1603      C1604   1.408       .  A
C1603      C1608   1.408       .  A
C1603      H1609   1.082       .  S
C1605      C1606   1.387       .  A
C1605      H1610   1.083       .  S
C1606      C1607   1.403       .  A
C1606      H1611   1.082       .  S
C1608      H1612   1.083       .  S
C1613      C1614   1.400       .  A
C1613      C1618   1.399       .  A
C1613      H1619   1.080       .  S
C1614      C1615   1.407   1_556  A
C1616      H1621   1.080       .  S
C1617      C1618   1.407       .  A
C1618      H1622   1.080       .  S
C1623      C1624   1.402       .  A
C1623      C1628   1.399       .  A
C1623      H1629   1.081       .  S
C1624      C1625   1.408       .  A
C1625      C1626   1.399       .  A
C1625      H1630   1.083       .  S
C1626      C1627   1.402       .  A
C1626      H1631   1.081       .  S
C1627      C1628   1.408       .  A
C1628      H1632   1.083       .  S
