geometry optimzed in LAMMPS
_audit_creation_date              2020-12-01 
_audit_creation_method            'lammps2cif' 
_symmetry_space_group_name_H-M    'P1' 
_symmetry_Int_Tables_number       1 
_symmetry_cell_setting            triclinic 
loop_ 
_symmetry_equiv_pos_as_xyz 
  x,y,z 
_cell_length_a                    43.3183579 
_cell_length_b                    43.37294854418105 
_cell_length_c                    33.74780772896231 
_cell_angle_alpha                 90.0750876617033 
_cell_angle_beta                  90.03253438704081 
_cell_angle_gamma                 90.57971656272396 
loop_ 
_atom_site_label 
_atom_site_type_symbol 
_atom_site_fract_x 
_atom_site_fract_y 
_atom_site_fract_z 
_atom_site_charge 
In1        In  0.16380491  0.99855216  0.12878942     1.36900
C2          C  0.20598835  0.00215212  0.07175050     0.76900
O3          O  0.19583707  0.02152998  0.17161895    -0.61500
O4          O  0.18717317  0.47365296  0.17914423    -0.52400
C5          C  0.12337474  0.03913133  0.15563517     0.69600
O6          O  0.14266484  0.04561702  0.12876562    -0.47300
C7          C  0.12654592  0.45620881  0.09695469     0.74300
O8          O  0.18739862  0.02374189  0.07881540    -0.59200
O9          O  0.14082783  0.45171288  0.12908174    -0.49200
O10         O  0.20248771  0.47884684  0.09369874    -0.55600
C11         C  0.20103466  0.49754787  0.19162301     0.84500
O12         O  0.12408483  0.01154999  0.16740315    -0.57500
O13         O  0.13083278  0.48255164  0.08206261    -0.60800
In14       In  0.32964323  0.50091659  0.37964671     1.36900
C15         C  0.36864835  0.04141436  0.34843816     0.76900
O16         O  0.36949643  0.48781631  0.41768795    -0.61500
O17         O  0.34883924  0.45296469  0.38186298    -0.52400
C18         C  0.29177033  0.50531289  0.44079273     0.69600
O19         O  0.30374409  0.02879504  0.42473894    -0.47300
C20         C  0.28753491  0.49644383  0.32268112     0.74300
O21         O  0.35709505  0.04504382  0.38246791    -0.59200
O22         O  0.30792125  0.47621089  0.32791930    -0.49200
O23         O  0.35985056  0.01738369  0.33053092    -0.55600
C24         C  0.36905722  0.45982652  0.40752645     0.84500
O25         O  0.29970570  0.47988863  0.42608230    -0.57500
O26         O  0.28910136  0.01875904  0.34662187    -0.60800
In27       In  0.49755483  0.33219937  0.49542566     1.36900
C28         C  0.03981800  0.36910899  0.02835947     0.76900
O29         O  0.48440660  0.37487575  0.46230035    -0.61500
O30         O  0.44989123  0.35111003  0.99302220    -0.52400
C31         C  0.50215622  0.29638925  0.43129645     0.69600
O32         O  0.02554396  0.31073584  0.44512938    -0.47300
C33         C  0.49239127  0.29134963  0.05311286     0.74300
O34         O  0.04374558  0.35753578  0.49371708    -0.59200
O35         O  0.47114647  0.30960317  0.04367811    -0.49200
O36         O  0.01499817  0.36167289  0.04553720    -0.55600
C37         C  0.45648662  0.37386502  0.47262842     0.84500
O38         O  0.47744848  0.30023587  0.45015633    -0.57500
O39         O  0.01606429  0.29399740  0.03269009    -0.60800
In40       In  0.49444100  0.16684120  0.24416950     1.36900
C41         C  0.50131841  0.20848147  0.30199168     0.76900
O42         O  0.01493285  0.19356447  0.19428101    -0.61500
O43         O  0.46595407  0.19377542  0.20001745    -0.52400
C44         C  0.03570092  0.12543629  0.21969954     0.69600
O45         O  0.04280725  0.14698138  0.24333911    -0.47300
C46         C  0.45375830  0.12735547  0.27489418     0.74300
O47         O  0.02346649  0.19130813  0.29080161    -0.59200
O48         O  0.44926347  0.14096125  0.24236461    -0.49200
O49         O  0.47641737  0.20386416  0.28351285    -0.55600
C50         C  0.48917905  0.20235183  0.18021271     0.84500
O51         O  0.00786290  0.12505290  0.20870858    -0.57500
O52         O  0.47884775  0.13452964  0.29168421    -0.60800
C53         C  0.48744246  0.22267427  0.14523644    -0.06800
C54         C  0.46618338  0.24684307  0.14508323    -0.17900
C55         C  0.46715124  0.26969482  0.11574247     0.10400
C56         C  0.48965775  0.26821768  0.08531691    -0.06700
C57         C  0.00998170  0.24302571  0.08507106    -0.17900
C58         C  0.00902603  0.22026565  0.11428648     0.10400
S59         S  0.44009448  0.30076107  0.12026126    -0.32900
S60         S  0.03499841  0.18825836  0.10906999    -0.32900
H61         H  0.01417031  0.16609984  0.12419116     0.28500
H62         H  0.46271434  0.32398164  0.11545824     0.28400
H63         H  0.44968915  0.24881721  0.16906708     0.19000
H64         H  0.02689744  0.24110096  0.06155535     0.19000
C65         C  0.50365297  0.27639439  0.39581244    -0.06800
C66         C  0.02929007  0.25682914  0.39047761    -0.17900
C67         C  0.02931659  0.23407505  0.36077790     0.10400
C68         C  0.50373238  0.23174087  0.33434926    -0.06700
C69         C  0.47908165  0.25228172  0.33880554    -0.17900
C70         C  0.47880167  0.27442673  0.36884351     0.10400
S71         S  0.06143300  0.20803868  0.36009665    -0.32900
S72         S  0.44611200  0.29985759  0.37055440    -0.32900
H73         H  0.46309242  0.32596403  0.38297170     0.28500
H74         H  0.04254355  0.18143250  0.36019322     0.28400
H75         H  0.04841542  0.25813793  0.41106341     0.19000
H76         H  0.45966817  0.25122466  0.31862115     0.19000
C77         C  0.39063319  0.43730112  0.42488179    -0.06800
C78         C  0.41961809  0.44806496  0.43789016    -0.17900
C79         C  0.44095970  0.42820263  0.45524317     0.10400
C80         C  0.43371754  0.39650484  0.45876195    -0.06700
C81         C  0.40453718  0.38580161  0.44666354    -0.17900
C82         C  0.38286459  0.40581402  0.43018773     0.10400
S83         S  0.47636774  0.44499496  0.47390288    -0.32900
S84         S  0.34545247  0.38990539  0.41806639    -0.32900
H85         H  0.32899068  0.41474729  0.43421665     0.28500
H86         H  0.47895601  0.42501377  0.50653050     0.28400
H87         H  0.42564806  0.47226458  0.43484627     0.19000
H88         H  0.39865061  0.36156969  0.44975675     0.19000
C89         C  0.39061534  0.06338567  0.33039229    -0.06800
C90         C  0.38823831  0.06911890  0.28962566    -0.17900
C91         C  0.40867085  0.08930994  0.27045398     0.10400
C92         C  0.43168775  0.10501269  0.29267873    -0.06700
C93         C  0.43408524  0.09901066  0.33350869    -0.17900
C94         C  0.41423549  0.07809212  0.35237775     0.10400
S95         S  0.40491411  0.09264669  0.21748451    -0.32900
S96         S  0.42142834  0.06983049  0.40388875    -0.32900
H97         H  0.41575318  0.03793092  0.40042438     0.28500
H98         H  0.43670010  0.08909514  0.21037441     0.28400
H99         H  0.37049218  0.05744905  0.27240414     0.19000
H100        H  0.45190518  0.11037378  0.35092095     0.19000
C101        C  0.27027871  0.50685104  0.47441332    -0.06400
C102        C  0.27562009  0.48745149  0.50674000    -0.17900
C103        C  0.25449784  0.48298353  0.03761731     0.10400
C104        C  0.22943552  0.50366982  0.03982198    -0.06700
C105        C  0.22587223  0.02569037  0.00957425    -0.17900
C106        C  0.24448694  0.02643520  0.47487924     0.10400
S107        S  0.26418974  0.45633845  0.07651991    -0.32900
S108        S  0.23490569  0.05129090  0.43398079    -0.32900
H109        H  0.24421028  0.03067962  0.40420084     0.28500
H110        H  0.26001619  0.47798864  0.10712478     0.28400
H111        H  0.29572615  0.47272420  0.50679392     0.19000
H112        H  0.20685620  0.04170960  0.01071499     0.19000
C113        C  0.26419508  0.49532986  0.29049734    -0.06800
C114        C  0.24955320  0.02302033  0.28024276    -0.17900
C115        C  0.22862559  0.02449783  0.24864390     0.10400
C116        C  0.22203153  0.49745528  0.22635413    -0.06700
C117        C  0.23612604  0.46968592  0.23713433    -0.17900
C118        C  0.25675529  0.46822698  0.26902232     0.10400
S119        S  0.21007016  0.06080982  0.23829725    -0.32900
S120        S  0.27189825  0.43092036  0.28131300    -0.32900
H121        H  0.26702081  0.43439034  0.32230593     0.28500
H122        H  0.22489219  0.07846962  0.26781321     0.28400
H123        H  0.25485043  0.04378973  0.29687060     0.19000
H124        H  0.23105339  0.44882085  0.22052486     0.19000
C125        C  0.06321057  0.38979326  0.04648115    -0.06800
C126        C  0.07960901  0.41007875  0.02173358    -0.17900
C127        C  0.10115968  0.43113529  0.03712894     0.10400
C128        C  0.10605176  0.43270779  0.07856609    -0.06700
C129        C  0.09027796  0.41181393  0.10322291    -0.17900
C130        C  0.06922684  0.39025523  0.08768546     0.10400
S131        S  0.12237960  0.45442738  0.00206162    -0.32900
S132        S  0.05164192  0.36341878  0.12185366    -0.32900
H133        H  0.05299575  0.33798723  0.09599244     0.28500
H134        H  0.15075712  0.45218476  0.02214109     0.28400
H135        H  0.07661047  0.40934536  0.48935881     0.19000
H136        H  0.09420975  0.41238873  0.13495065     0.19000
C137        C  0.05829311  0.10282706  0.20529435    -0.06800
C138        C  0.08748247  0.11347936  0.19325079    -0.17900
C139        C  0.10921240  0.09336748  0.17705621     0.10400
C140        C  0.10163667  0.06174183  0.17249092    -0.06700
C141        C  0.07260650  0.05106200  0.18531731    -0.17900
C142        C  0.05098177  0.07114128  0.20172187     0.10400
S143        S  0.14636279  0.10944327  0.16403229    -0.32900
S144        S  0.01486679  0.05472404  0.21853319    -0.32900
H145        H  0.51066426  0.07394716  0.25027310     0.28500
H146        H  0.16325731  0.08458775  0.17915472     0.28400
H147        H  0.09330379  0.13774002  0.19611599     0.19000
H148        H  0.06666189  0.02682849  0.18251749     0.19000
In149      In  0.16370517  0.99955777  0.62832803     1.36900
C150        C  0.20577657  0.00399799  0.57127471     0.76900
O151        O  0.19559272  0.02255913  0.67143334    -0.61500
O152        O  0.18759435  0.47468082  0.67824612    -0.52400
C153        C  0.12324123  0.03984660  0.65578156     0.69600
O154        O  0.14261128  0.04663564  0.62913340    -0.47300
C155        C  0.12688048  0.45686737  0.59632319     0.74300
O156        O  0.18622990  0.02488236  0.57751475    -0.59200
O157        O  0.14127904  0.45252788  0.62839435    -0.49200
O158        O  0.20322696  0.48115139  0.59387640    -0.55600
C159        C  0.20116225  0.49863494  0.69107439     0.84500
O160        O  0.12392464  0.01214247  0.66706916    -0.57500
O161        O  0.13080734  0.48329446  0.58153263    -0.60800
In162      In  0.32966885  0.50099639  0.87962006     1.36900
C163        C  0.36880995  0.04156665  0.84882626     0.76900
O164        O  0.36925810  0.48770781  0.91805320    -0.61500
O165        O  0.34941301  0.45324581  0.88088386    -0.52400
C166        C  0.29157525  0.50429212  0.94064086     0.69600
O167        O  0.30392032  0.02809982  0.92560922    -0.47300
C168        C  0.28764990  0.49714986  0.82240159     0.74300
O169        O  0.35711293  0.04518782  0.88278566    -0.59200
O170        O  0.30799594  0.47686081  0.82752650    -0.49200
O171        O  0.36002167  0.01759048  0.83080109    -0.55600
C172        C  0.36929988  0.45991089  0.90705258     0.84500
O173        O  0.29929846  0.47916229  0.92490698    -0.57500
O174        O  0.28921941  0.01933988  0.84655858    -0.60800
In175      In  0.49826238  0.33247381  0.99506243     1.36900
C176        C  0.04065473  0.36910255  0.52785394     0.76900
O177        O  0.48523859  0.37558631  0.96268968    -0.61500
O178        O  0.44945994  0.35147431  0.49476559    -0.52400
C179        C  0.50263346  0.29639205  0.93100320     0.69600
O180        O  0.02530307  0.31060440  0.94568232    -0.47300
C181        C  0.49173397  0.29061416  0.55289344     0.74300
O182        O  0.04285945  0.35793425  0.99401182    -0.59200
O183        O  0.47025533  0.30850852  0.54318047    -0.49200
O184        O  0.01562578  0.36217293  0.54488774    -0.55600
C185        C  0.45708021  0.37398679  0.97180757     0.84500
O186        O  0.47802703  0.30026557  0.95005588    -0.57500
O187        O  0.01638007  0.29404490  0.53240710    -0.60800
In188      In  0.49508695  0.16639734  0.74429211     1.36900
C189        C  0.50169492  0.20806510  0.80204997     0.76900
O190        O  0.01451679  0.19289566  0.69345135    -0.61500
O191        O  0.46635749  0.19283916  0.69992302    -0.52400
C192        C  0.03516190  0.12553106  0.72016173     0.69600
O193        O  0.04230790  0.14726701  0.74350610    -0.47300
C194        C  0.45440145  0.12702031  0.77527810     0.74300
O195        O  0.02332829  0.19182558  0.79040046    -0.59200
O196        O  0.45005693  0.14032311  0.74251189    -0.49200
O197        O  0.47687148  0.20348136  0.78337860    -0.55600
C198        C  0.48956891  0.20216624  0.68064798     0.84500
O199        O  0.00729822  0.12502537  0.70927720    -0.57500
O200        O  0.47940297  0.13436849  0.79216708    -0.60800
C201        C  0.48764057  0.22238258  0.64559787    -0.06800
C202        C  0.46600590  0.24621541  0.64515528    -0.17900
C203        C  0.46660781  0.26884072  0.61550692     0.10400
C204        C  0.48913781  0.26747395  0.58509876    -0.06700
C205        C  0.01006556  0.24323604  0.58499585    -0.17900
C206        C  0.00877503  0.22026058  0.61392407     0.10400
S207        S  0.43906893  0.29952047  0.61960400    -0.32900
S208        S  0.03419169  0.18786224  0.60820142    -0.32900
H209        H  0.01300420  0.16595176  0.62310200     0.28500
H210        H  0.46135472  0.32305319  0.61473220     0.28400
H211        H  0.44947831  0.24810520  0.66911430     0.19000
H212        H  0.02693324  0.24122384  0.56143607     0.19000
C213        C  0.50400167  0.27622924  0.89562220    -0.06800
C214        C  0.02918019  0.25699917  0.89060827    -0.17900
C215        C  0.02921692  0.23429240  0.86083869     0.10400
C216        C  0.50402567  0.23135998  0.83437510    -0.06700
C217        C  0.47926868  0.25175952  0.83893828    -0.17900
C218        C  0.47900478  0.27399622  0.86888109     0.10400
S219        S  0.06129750  0.20821384  0.86013251    -0.32900
S220        S  0.44615428  0.29920888  0.87073088    -0.32900
H221        H  0.46305098  0.32548089  0.88274586     0.28500
H222        H  0.04238362  0.18162763  0.85984105     0.28400
H223        H  0.04826939  0.25824358  0.91125088     0.19000
H224        H  0.45976403  0.25052573  0.81890907     0.19000
C225        C  0.39102670  0.43736182  0.92405200    -0.06800
C226        C  0.41992764  0.44818027  0.93727092    -0.17900
C227        C  0.44131838  0.42831906  0.95453934     0.10400
C228        C  0.43426489  0.39655116  0.95769332    -0.06700
C229        C  0.40518977  0.38576868  0.94522470    -0.17900
C230        C  0.38343895  0.40579089  0.92889180     0.10400
S231        S  0.47647720  0.44521320  0.97377218    -0.32900
S232        S  0.34611409  0.38981300  0.91644117    -0.32900
H233        H  0.32947199  0.41452982  0.93260598     0.28500
H234        H  0.47837770  0.42554190  0.00680099     0.28400
H235        H  0.42581440  0.47243850  0.93455952     0.19000
H236        H  0.39941304  0.36149137  0.94801910     0.19000
C237        C  0.39088851  0.06348095  0.83088954    -0.06800
C238        C  0.38896219  0.06874714  0.78998411    -0.17900
C239        C  0.40951383  0.08880094  0.77082817     0.10400
C240        C  0.43222780  0.10483448  0.79316762    -0.06700
C241        C  0.43417335  0.09933574  0.83416206    -0.17900
C242        C  0.41420030  0.07852555  0.85304761     0.10400
S243        S  0.40627242  0.09156767  0.71774988    -0.32900
S244        S  0.42090650  0.07073153  0.90478495    -0.32900
H245        H  0.41578237  0.03872866  0.90149269     0.28500
H246        H  0.43813140  0.08798020  0.71123860     0.28400
H247        H  0.37146801  0.05681087  0.77262957     0.19000
H248        H  0.45175261  0.11097981  0.85167674     0.19000
C249        C  0.27002291  0.50518492  0.97430119    -0.06400
C250        C  0.27386469  0.48350630  0.00455905    -0.17900
C251        C  0.25603125  0.48730107  0.53957257     0.10400
C252        C  0.22941249  0.50602639  0.53958933    -0.06700
C253        C  0.22444945  0.02588598  0.50745471    -0.17900
C254        C  0.24579732  0.02663696  0.97692373     0.10400
S255        S  0.26722052  0.46357940  0.58088247    -0.32900
S256        S  0.23803757  0.05456111  0.93875965    -0.32900
H257        H  0.24533356  0.03497434  0.90694410     0.28500
H258        H  0.26036014  0.48606213  0.60960160     0.28400
H259        H  0.29278771  0.46733961  0.00298510     0.19000
H260        H  0.20424602  0.04041177  0.50700317     0.19000
C261        C  0.26439107  0.49619248  0.79005727    -0.06800
C262        C  0.24957362  0.02379924  0.78004995    -0.17900
C263        C  0.22872452  0.02533994  0.74833412     0.10400
C264        C  0.22225230  0.49849471  0.72578772    -0.06700
C265        C  0.23658579  0.47076796  0.73624129    -0.17900
C266        C  0.25726003  0.46923937  0.76809332     0.10400
S267        S  0.21014528  0.06165469  0.73813268    -0.32900
S268        S  0.27299477  0.43202072  0.77955978    -0.32900
H269        H  0.26768856  0.43472653  0.82056016     0.28500
H270        H  0.22626694  0.07964414  0.76617480     0.28400
H271        H  0.25465665  0.04447445  0.79695459     0.19000
H272        H  0.23171253  0.45000301  0.71936094     0.19000
C273        C  0.06416468  0.38974311  0.54588521    -0.06800
C274        C  0.08058389  0.40997218  0.52108058    -0.17900
C275        C  0.10187832  0.43132069  0.53646153     0.10400
C276        C  0.10664763  0.43310132  0.57792076    -0.06700
C277        C  0.09096744  0.41215701  0.60261360    -0.17900
C278        C  0.07005439  0.39042902  0.58711938     0.10400
S279        S  0.12275789  0.45488771  0.50136362    -0.32900
S280        S  0.05236881  0.36375663  0.62141951    -0.32900
H281        H  0.05344723  0.33826434  0.59563519     0.28500
H282        H  0.15111477  0.45335710  0.52160681     0.28400
H283        H  0.07555457  0.40960068  0.99002377     0.19000
H284        H  0.09478918  0.41289044  0.63435874     0.19000
C285        C  0.05780826  0.10298294  0.70576552    -0.06800
C286        C  0.08713450  0.11372579  0.69443417    -0.17900
C287        C  0.10898058  0.09379855  0.67817210     0.10400
C288        C  0.10140467  0.06225004  0.67284007    -0.06700
C289        C  0.07222615  0.05145409  0.68493043    -0.17900
C290        C  0.05045927  0.07136034  0.70137122     0.10400
S291        S  0.14624816  0.11002072  0.66603414    -0.32900
S292        S  0.01411997  0.05478664  0.71710148    -0.32900
H293        H  0.51179637  0.07419716  0.75142447     0.28500
H294        H  0.16297880  0.08486101  0.68057400     0.28400
H295        H  0.09297472  0.13793678  0.69787859     0.19000
H296        H  0.06626859  0.02727515  0.68148029     0.19000
In297      In  0.16381413  0.49846401  0.12882092     1.36900
C298        C  0.20600001  0.50209400  0.07178983     0.76900
O299        O  0.19588837  0.52141355  0.17161317    -0.61500
O300        O  0.18721762  0.97374993  0.17907703    -0.52400
C301        C  0.12341054  0.53904904  0.15572056     0.69600
O302        O  0.14267132  0.54552692  0.12881413    -0.47300
C303        C  0.12654633  0.95627314  0.09696618     0.74300
O304        O  0.18736773  0.52365343  0.07882036    -0.59200
O305        O  0.14080386  0.95180923  0.12911951    -0.49200
O306        O  0.20242954  0.97889136  0.09362208    -0.55600
C307        C  0.20104088  0.99765636  0.19158563     0.84500
O308        O  0.12414054  0.51147419  0.16751023    -0.57500
O309        O  0.13084435  0.98260144  0.08203378    -0.60800
In310      In  0.32963402  0.00090962  0.37964334     1.36900
C311        C  0.36868740  0.54138949  0.34842828     0.76900
O312        O  0.36947556  0.98779404  0.41770772    -0.61500
O313        O  0.34886012  0.95296179  0.38181682    -0.52400
C314        C  0.29174414  0.00526150  0.44077692     0.69600
O315        O  0.30373801  0.52883578  0.42468901    -0.47300
C316        C  0.28754175  0.99648242  0.32265298     0.74300
O317        O  0.35717397  0.54500834  0.38248166    -0.59200
O318        O  0.30787261  0.97620233  0.32794460    -0.49200
O319        O  0.35982546  0.51739336  0.33049649    -0.55600
C320        C  0.36905366  0.95980978  0.40751694     0.84500
O321        O  0.29965898  0.97985157  0.42600866    -0.57500
O322        O  0.28905367  0.51870255  0.34668199    -0.60800
In323      In  0.49754218  0.83220589  0.49548415     1.36900
C324        C  0.03989901  0.86910101  0.02836870     0.76900
O325        O  0.48438715  0.87492511  0.46247846    -0.61500
O326        O  0.44983297  0.85112637  0.99310822    -0.52400
C327        C  0.50213308  0.79640188  0.43133117     0.69600
O328        O  0.02555807  0.81074661  0.44508550    -0.47300
C329        C  0.49236275  0.79137386  0.05312216     0.74300
O330        O  0.04375657  0.85750373  0.49373629    -0.59200
O331        O  0.47110971  0.80961651  0.04368428    -0.49200
O332        O  0.01504870  0.86172337  0.04551247    -0.55600
C333        C  0.45645221  0.87386084  0.47273145     0.84500
O334        O  0.47742428  0.80027156  0.45017670    -0.57500
O335        O  0.01609237  0.79392434  0.03259580    -0.60800
In336      In  0.49445402  0.66687232  0.24418676     1.36900
C337        C  0.50132170  0.70848191  0.30203789     0.76900
O338        O  0.01499966  0.69350702  0.19425425    -0.61500
O339        O  0.46594984  0.69382803  0.20006650    -0.52400
C340        C  0.03574468  0.62537274  0.21975472     0.69600
O341        O  0.04284768  0.64690709  0.24341310    -0.47300
C342        C  0.45379124  0.62735100  0.27489574     0.74300
O343        O  0.02353695  0.69130939  0.29076359    -0.59200
O344        O  0.44928732  0.64097404  0.24238063    -0.49200
O345        O  0.47642881  0.70387869  0.28353640    -0.55600
C346        C  0.48916390  0.70238171  0.18022489     0.84500
O347        O  0.00791788  0.62501680  0.20871863    -0.57500
O348        O  0.47888395  0.63452412  0.29167887    -0.60800
C349        C  0.48741606  0.72269669  0.14523987    -0.06800
C350        C  0.46615088  0.74686045  0.14508077    -0.17900
C351        C  0.46711773  0.76971176  0.11573943     0.10400
C352        C  0.48963196  0.76824153  0.08532316    -0.06700
C353        C  0.01000903  0.74297909  0.08503574    -0.17900
C354        C  0.00906097  0.72023219  0.11427173     0.10400
S355        S  0.44004776  0.80076837  0.12024405    -0.32900
S356        S  0.03499463  0.68819429  0.10903561    -0.32900
H357        H  0.01416378  0.66606186  0.12421319     0.28500
H358        H  0.46266108  0.82399745  0.11545651     0.28400
H359        H  0.44965296  0.74883171  0.16906034     0.19000
H360        H  0.02689639  0.74102530  0.06149113     0.19000
C361        C  0.50362828  0.77640385  0.39584707    -0.06800
C362        C  0.02933504  0.75682722  0.39045180    -0.17900
C363        C  0.02937039  0.73406936  0.36075619     0.10400
C364        C  0.50372376  0.73173513  0.33440155    -0.06700
C365        C  0.47906376  0.75226453  0.33885310    -0.17900
C366        C  0.47877118  0.77441244  0.36888575     0.10400
S367        S  0.06151102  0.70806269  0.36005321    -0.32900
S368        S  0.44604989  0.79980301  0.37059903    -0.32900
H369        H  0.46299281  0.82592762  0.38303312     0.28500
H370        H  0.04264753  0.68143828  0.36013915     0.28400
H371        H  0.04846654  0.75815535  0.41102604     0.19000
H372        H  0.45964942  0.75119406  0.31867126     0.19000
C373        C  0.39061940  0.93727695  0.42488632    -0.06800
C374        C  0.41959383  0.94804275  0.43792786    -0.17900
C375        C  0.44092329  0.92818611  0.45531371     0.10400
C376        C  0.43367704  0.89649161  0.45885450    -0.06700
C377        C  0.40450662  0.88578240  0.44672038    -0.17900
C378        C  0.38285142  0.90578706  0.43018420     0.10400
S379        S  0.47633431  0.94497989  0.47396094    -0.32900
S380        S  0.34547222  0.88985769  0.41793904    -0.32900
H381        H  0.32896029  0.91468881  0.43402898     0.28500
H382        H  0.47887743  0.92505139  0.50664880     0.28400
H383        H  0.42562793  0.97224013  0.43487658     0.19000
H384        H  0.39862083  0.86155016  0.44981206     0.19000
C385        C  0.39067167  0.56334173  0.33038016    -0.06800
C386        C  0.38821649  0.56916882  0.28964541    -0.17900
C387        C  0.40862547  0.58938637  0.27047895     0.10400
C388        C  0.43172929  0.60499058  0.29267255    -0.06700
C389        C  0.43421153  0.59888310  0.33346992    -0.17900
C390        C  0.41435967  0.57796391  0.35233648     0.10400
S391        S  0.40468240  0.59292522  0.21755540    -0.32900
S392        S  0.42161431  0.56961113  0.40380853    -0.32900
H393        H  0.41588670  0.53772555  0.40026843     0.28500
H394        H  0.43642429  0.58925665  0.21023370     0.28400
H395        H  0.37040705  0.55757363  0.27244878     0.19000
H396        H  0.45208793  0.61017519  0.35086149     0.19000
C397        C  0.27024457  0.00676712  0.47439257    -0.06400
C398        C  0.27548164  0.98721061  0.50659060    -0.17900
C399        C  0.25444238  0.98296697  0.03754363     0.10400
C400        C  0.22942895  0.00371110  0.03978826    -0.06700
C401        C  0.22582799  0.52560612  0.00956631    -0.17900
C402        C  0.24443163  0.52640422  0.47478511     0.10400
S403        S  0.26406128  0.95623977  0.07638394    -0.32900
S404        S  0.23474985  0.55108884  0.43375436    -0.32900
H405        H  0.24416858  0.53043958  0.40408092     0.28500
H406        H  0.25994729  0.97785879  0.10703907     0.28400
H407        H  0.29551446  0.97238296  0.50655240     0.19000
H408        H  0.20677632  0.54158350  0.01067910     0.19000
C409        C  0.26422009  0.99539839  0.29044564    -0.06800
C410        C  0.24947489  0.52292953  0.28032583    -0.17900
C411        C  0.22854691  0.52438826  0.24872732     0.10400
C412        C  0.22205928  0.99756179  0.22629846    -0.06700
C413        C  0.23611944  0.96977778  0.23709358    -0.17900
C414        C  0.25673888  0.96829879  0.26898897     0.10400
S415        S  0.20995062  0.56067928  0.23838182    -0.32900
S416        S  0.27179494  0.93096753  0.28133342    -0.32900
H417        H  0.26686914  0.93446527  0.32231316     0.28500
H418        H  0.22437205  0.57823226  0.26832195     0.28400
H419        H  0.25475053  0.54370448  0.29695748     0.19000
H420        H  0.23101386  0.94891075  0.22050328     0.19000
C421        C  0.06328390  0.88979209  0.04648756    -0.06800
C422        C  0.07968640  0.91007281  0.02173959    -0.17900
C423        C  0.10121631  0.93114762  0.03714071     0.10400
C424        C  0.10607479  0.93274960  0.07858278    -0.06700
C425        C  0.09029804  0.91185801  0.10324078    -0.17900
C426        C  0.06927295  0.89027637  0.08769688     0.10400
S427        S  0.12246324  0.95441826  0.00207697    -0.32900
S428        S  0.05168150  0.86343958  0.12186052    -0.32900
H429        H  0.05302151  0.83800777  0.09599779     0.28500
H430        H  0.15082646  0.95217808  0.02219123     0.28400
H431        H  0.07665725  0.90929845  0.48937302     0.19000
H432        H  0.09420809  0.91245136  0.13497310     0.19000
C433        C  0.05833255  0.60275294  0.20536669    -0.06800
C434        C  0.08752555  0.61339966  0.19333166    -0.17900
C435        C  0.10925536  0.59328489  0.17714488     0.10400
C436        C  0.10167681  0.56166005  0.17258180    -0.06700
C437        C  0.07264235  0.55098458  0.18539731    -0.17900
C438        C  0.05101542  0.57106774  0.20179078     0.10400
S439        S  0.14640624  0.60935916  0.16411955    -0.32900
S440        S  0.01489129  0.55465397  0.21857741    -0.32900
H441        H  0.51068124  0.57401079  0.25027654     0.28500
H442        H  0.16330263  0.58448423  0.17918185     0.28400
H443        H  0.09334921  0.63766025  0.19619427     0.19000
H444        H  0.06669489  0.52675170  0.18259266     0.19000
In445      In  0.16372892  0.49959824  0.62831923     1.36900
C446        C  0.20581702  0.50411175  0.57129419     0.76900
O447        O  0.19560751  0.52260435  0.67144617    -0.61500
O448        O  0.18757675  0.97464196  0.67826512    -0.52400
C449        C  0.12325436  0.53984645  0.65585885     0.69600
O450        O  0.14259770  0.54665483  0.62918681    -0.47300
C451        C  0.12681505  0.95685495  0.59638232     0.74300
O452        O  0.18620399  0.52494356  0.57748103    -0.59200
O453        O  0.14117336  0.95252869  0.62848697    -0.49200
O454        O  0.20312622  0.98102132  0.59381918    -0.55600
C455        C  0.20115132  0.99859842  0.69107416     0.84500
O456        O  0.12396327  0.51213819  0.66712783    -0.57500
O457        O  0.13079714  0.98325761  0.58154255    -0.60800
In458      In  0.32966934  0.00102788  0.87960128     1.36900
C459        C  0.36884348  0.54152227  0.84885887     0.76900
O460        O  0.36924964  0.98773563  0.91804534    -0.61500
O461        O  0.34944538  0.95329024  0.88081725    -0.52400
C462        C  0.29156886  0.00431524  0.94061320     0.69600
O463        O  0.30389240  0.52807981  0.92559607    -0.47300
C464        C  0.28767112  0.99718704  0.82237067     0.74300
O465        O  0.35711846  0.54515841  0.88279965    -0.59200
O466        O  0.30793970  0.97683709  0.82760001    -0.49200
O467        O  0.36005370  0.51754547  0.83083643    -0.55600
C468        C  0.36930407  0.95994397  0.90702388     0.84500
O469        O  0.29925426  0.97919076  0.92483701    -0.57500
O470        O  0.28913023  0.51924150  0.84668600    -0.60800
In471      In  0.49821175  0.83249508  0.99507575     1.36900
C472        C  0.04061649  0.86911152  0.52784190     0.76900
O473        O  0.48515597  0.87559321  0.96271457    -0.61500
O474        O  0.44942168  0.85142599  0.49479208    -0.52400
C475        C  0.50260738  0.79639563  0.93103478     0.69600
O476        O  0.02531807  0.81067696  0.94561683    -0.47300
C477        C  0.49170767  0.79066209  0.55299249     0.74300
O478        O  0.04297265  0.85786782  0.99405788    -0.59200
O479        O  0.47022297  0.80853513  0.54323972    -0.49200
O480        O  0.01556158  0.86220869  0.54482888    -0.55600
C481        C  0.45700762  0.87400191  0.97188306     0.84500
O482        O  0.47798663  0.80029530  0.95004854    -0.57500
O483        O  0.01640225  0.79402097  0.53236140    -0.60800
In484      In  0.49508663  0.66640438  0.74432610     1.36900
C485        C  0.50175715  0.70810100  0.80203848     0.76900
O486        O  0.01455727  0.69290350  0.69346122    -0.61500
O487        O  0.46633234  0.69284365  0.69998213    -0.52400
C488        C  0.03516392  0.62552900  0.72020970     0.69600
O489        O  0.04230378  0.64724906  0.74358124    -0.47300
C490        C  0.45441040  0.62703516  0.77536133     0.74300
O491        O  0.02334122  0.69183979  0.79041937    -0.59200
O492        O  0.45002481  0.64037902  0.74263338    -0.49200
O493        O  0.47694193  0.70355586  0.78333589    -0.55600
C494        C  0.48953535  0.70218489  0.68070129     0.84500
O495        O  0.00731254  0.62504971  0.70927360    -0.57500
O496        O  0.47943760  0.63435267  0.79220549    -0.60800
C497        C  0.48759138  0.72241444  0.64566634    -0.06800
C498        C  0.46597450  0.74626577  0.64525617    -0.17900
C499        C  0.46657757  0.76889884  0.61561442     0.10400
C500        C  0.48910383  0.76752896  0.58520087    -0.06700
C501        C  0.01007359  0.74317899  0.58492495    -0.17900
C502        C  0.00880465  0.72022564  0.61388665     0.10400
S503        S  0.43903196  0.79957483  0.61970624    -0.32900
S504        S  0.03424582  0.68784165  0.60820335    -0.32900
H505        H  0.01309420  0.66592835  0.62317832     0.28500
H506        H  0.46129600  0.82311641  0.61475016     0.28400
H507        H  0.44945696  0.74815708  0.66922634     0.19000
H508        H  0.02692591  0.74115269  0.56134996     0.19000
C509        C  0.50399595  0.77622789  0.89565854    -0.06800
C510        C  0.02921147  0.75709483  0.89054331    -0.17900
C511        C  0.02925625  0.73437948  0.86078497     0.10400
C512        C  0.50408828  0.73139944  0.83436018    -0.06700
C513        C  0.47933410  0.75180549  0.83889306    -0.17900
C514        C  0.47902426  0.77400501  0.86887690     0.10400
S515        S  0.06140910  0.70839089  0.85999899    -0.32900
S516        S  0.44612518  0.79915350  0.87074930    -0.32900
H517        H  0.46296910  0.82544928  0.88279541     0.28500
H518        H  0.04256758  0.68175381  0.85979895     0.28400
H519        H  0.04832997  0.75839058  0.91113616     0.19000
H520        H  0.45985123  0.75058793  0.81882846     0.19000
C521        C  0.39100553  0.93738719  0.92405635    -0.06800
C522        C  0.41989758  0.94819864  0.93731185    -0.17900
C523        C  0.44126675  0.92833594  0.95461728     0.10400
C524        C  0.43419117  0.89657420  0.95779966    -0.06700
C525        C  0.40511675  0.88580076  0.94531727    -0.17900
C526        C  0.38339824  0.90582048  0.92890697     0.10400
S527        S  0.47644290  0.94521953  0.97381641    -0.32900
S528        S  0.34610704  0.88983381  0.91630596    -0.32900
H529        H  0.32941519  0.91454840  0.93238782     0.28500
H530        H  0.47838790  0.92552752  0.00681929     0.28400
H531        H  0.42580055  0.97245264  0.93458182     0.19000
H532        H  0.39932794  0.86152565  0.94812105     0.19000
C533        C  0.39094393  0.56342678  0.83093385    -0.06800
C534        C  0.38907836  0.56863958  0.79001100    -0.17900
C535        C  0.40961278  0.58872326  0.77087536     0.10400
C536        C  0.43225781  0.60482685  0.79324394    -0.06700
C537        C  0.43416091  0.59936737  0.83424952    -0.17900
C538        C  0.41419637  0.57853980  0.85312356     0.10400
S539        S  0.40643298  0.59145213  0.71778660    -0.32900
S540        S  0.42082903  0.57083423  0.90489921    -0.32900
H541        H  0.41572509  0.53882375  0.90168878     0.28500
H542        H  0.43831596  0.58800142  0.71133801     0.28400
H543        H  0.37163555  0.55665323  0.77263121     0.19000
H544        H  0.45169198  0.61106576  0.85178293     0.19000
C545        C  0.27001842  0.00520791  0.97427234    -0.06400
C546        C  0.27381386  0.98348759  0.00449012    -0.17900
C547        C  0.25588475  0.98701798  0.53941317     0.10400
C548        C  0.22936697  0.00588598  0.53955890    -0.06700
C549        C  0.22439441  0.52587869  0.50736173    -0.17900
C550        C  0.24575591  0.52656674  0.97691756     0.10400
S551        S  0.26693495  0.96303973  0.58053806    -0.32900
S552        S  0.23794962  0.55445722  0.93872787    -0.32900
H553        H  0.24532290  0.53488726  0.90692742     0.28500
H554        H  0.26029604  0.98546999  0.60941331     0.28400
H555        H  0.29270234  0.96728097  0.00288624     0.19000
H556        H  0.20411748  0.54029935  0.50681954     0.19000
C557        C  0.26441765  0.99621909  0.79002256    -0.06800
C558        C  0.24947739  0.52375726  0.78018252    -0.17900
C559        C  0.22865425  0.52532423  0.74843939     0.10400
C560        C  0.22225253  0.99847633  0.72577858    -0.06700
C561        C  0.23652703  0.97073861  0.73632179    -0.17900
C562        C  0.25720690  0.96923142  0.76817050     0.10400
S563        S  0.21002674  0.56162611  0.73831343    -0.32900
S564        S  0.27283673  0.93199671  0.77979120    -0.32900
H565        H  0.26749725  0.93480658  0.82077341     0.28500
H566        H  0.22620685  0.57961970  0.76629718     0.28400
H567        H  0.25449614  0.54440551  0.79717492     0.19000
H568        H  0.23159553  0.94994575  0.71952307     0.19000
C569        C  0.06410681  0.88975680  0.54589782    -0.06800
C570        C  0.08057954  0.90995104  0.52110529    -0.17900
C571        C  0.10188035  0.93128110  0.53650922     0.10400
C572        C  0.10657818  0.93309822  0.57797818    -0.06700
C573        C  0.09083891  0.91219353  0.60266364    -0.17900
C574        C  0.06993889  0.89046498  0.58714455     0.10400
S575        S  0.12288858  0.95475398  0.50143179    -0.32900
S576        S  0.05220953  0.86380599  0.62142601    -0.32900
H577        H  0.05330156  0.83830516  0.59565618     0.28500
H578        H  0.15120110  0.95317266  0.52177143     0.28400
H579        H  0.07565161  0.90957586  0.99002546     0.19000
H580        H  0.09461500  0.91294935  0.63441734     0.19000
C581        C  0.05780897  0.60297365  0.70583764    -0.06800
C582        C  0.08713171  0.61371863  0.69450147    -0.17900
C583        C  0.10898151  0.59379227  0.67825115     0.10400
C584        C  0.10141943  0.56223717  0.67295271    -0.06700
C585        C  0.07224691  0.55143527  0.68506322    -0.17900
C586        C  0.05046656  0.57134723  0.70146864     0.10400
S587        S  0.14623094  0.61003192  0.66606016    -0.32900
S588        S  0.01410902  0.55478209  0.71714940    -0.32900
H589        H  0.51174759  0.57420730  0.75135508     0.28500
H590        H  0.16298761  0.58489113  0.68060429     0.28400
H591        H  0.09296282  0.63793380  0.69792045     0.19000
H592        H  0.06629743  0.52725346  0.68163096     0.19000
In593      In  0.66371712  0.99975750  0.12824395     1.36900
C594        C  0.70591607  0.00429336  0.07135198     0.76900
O595        O  0.69537787  0.02280786  0.17161982    -0.61500
O596        O  0.68755484  0.47488066  0.17817681    -0.52400
C597        C  0.62320170  0.04004202  0.15557302     0.69600
O598        O  0.64257958  0.04683201  0.12893251    -0.47300
C599        C  0.62689116  0.45700064  0.09623991     0.74300
O600        O  0.68625647  0.02509687  0.07744456    -0.59200
O601        O  0.64123070  0.45274609  0.12837148    -0.49200
O602        O  0.70329970  0.48140678  0.09388982    -0.55600
C603        C  0.70102064  0.49884380  0.19114534     0.84500
O604        O  0.62390565  0.01234839  0.16689776    -0.57500
O605        O  0.63087613  0.48338506  0.08134392    -0.60800
In606      In  0.82963910  0.50109603  0.37963714     1.36900
C607        C  0.86881200  0.04162354  0.34893486     0.76900
O608        O  0.86917792  0.48778517  0.41815525    -0.61500
O609        O  0.84936808  0.45333718  0.38094187    -0.52400
C610        C  0.79143741  0.50425141  0.44059535     0.69600
O611        O  0.80387705  0.02807163  0.42575069    -0.47300
C612        C  0.78770233  0.49732529  0.32230069     0.74300
O613        O  0.85700826  0.04530320  0.38282510    -0.59200
O614        O  0.80803231  0.47702077  0.32743213    -0.49200
O615        O  0.86011329  0.01759477  0.33095547    -0.55600
C616        C  0.86921817  0.45998723  0.40715921     0.84500
O617        O  0.79901892  0.47918170  0.42458645    -0.57500
O618        O  0.78918343  0.01941671  0.34659492    -0.60800
In619      In  0.99814866  0.33247303  0.49514234     1.36900
C620        C  0.54073448  0.36907427  0.02790434     0.76900
O621        O  0.98507520  0.37556371  0.46273664    -0.61500
O622        O  0.94949741  0.35145538  0.99473071    -0.52400
C623        C  0.00251668  0.29641684  0.43109411     0.69600
O624        O  0.52514503  0.31063156  0.44555246    -0.47300
C625        C  0.99177914  0.29077276  0.05296881     0.74300
O626        O  0.54289296  0.35760900  0.49423021    -0.59200
O627        O  0.97029614  0.30863548  0.04317544    -0.49200
O628        O  0.51562490  0.36226139  0.04481911    -0.55600
C629        C  0.95693612  0.37400435  0.47195272     0.84500
O630        O  0.97790627  0.30029455  0.45013425    -0.57500
O631        O  0.51645845  0.29405432  0.03230937    -0.60800
In632      In  0.99499372  0.16651798  0.24428341     1.36900
C633        C  0.00159682  0.20819071  0.30204679     0.76900
O634        O  0.51452372  0.19289095  0.19336622    -0.61500
O635        O  0.96623882  0.19285126  0.19982544    -0.52400
C636        C  0.53501750  0.12557798  0.22002689     0.69600
O637        O  0.54215355  0.14725499  0.24346528    -0.47300
C638        C  0.95437869  0.12709233  0.27535316     0.74300
O639        O  0.52322981  0.19183678  0.29030716    -0.59200
O640        O  0.94994977  0.14045465  0.24264693    -0.49200
O641        O  0.97684826  0.20378888  0.28314317    -0.55600
C642        C  0.98945723  0.20225121  0.18061647     0.84500
O643        O  0.50715868  0.12510014  0.20910681    -0.57500
O644        O  0.97941669  0.13442301  0.29216076    -0.60800
C645        C  0.98753518  0.22245859  0.14555789    -0.06800
C646        C  0.96588204  0.24627605  0.14508192    -0.17900
C647        C  0.96655335  0.26895305  0.11549663     0.10400
C648        C  0.98913786  0.26762064  0.08515217    -0.06700
C649        C  0.51013387  0.24331275  0.08493476    -0.17900
C650        C  0.50882282  0.22033573  0.11385228     0.10400
S651        S  0.93907422  0.29968379  0.11963919    -0.32900
S652        S  0.53409356  0.18783810  0.10800251    -0.32900
H653        H  0.51285044  0.16600281  0.12295234     0.28500
H654        H  0.96139360  0.32318231  0.11474435     0.28400
H655        H  0.94931186  0.24813479  0.16899606     0.19000
H656        H  0.52695967  0.24125858  0.06133187     0.19000
C657        C  0.00388187  0.27628508  0.39569767    -0.06800
C658        C  0.52900499  0.25684683  0.39068675    -0.17900
C659        C  0.52906917  0.23419765  0.36084810     0.10400
C660        C  0.00391725  0.23146226  0.33440410    -0.06700
C661        C  0.97917071  0.25187744  0.33896137    -0.17900
C662        C  0.97889369  0.27408279  0.36894118     0.10400
S663        S  0.56113545  0.20809917  0.36012796    -0.32900
S664        S  0.94602812  0.29927705  0.37083622    -0.32900
H665        H  0.96289106  0.32553895  0.38296311     0.28500
H666        H  0.54221181  0.18152180  0.35969499     0.28400
H667        H  0.54804023  0.25801105  0.41141772     0.19000
H668        H  0.95967449  0.25066782  0.31891639     0.19000
C669        C  0.89090903  0.43742318  0.42420681    -0.06800
C670        C  0.91981416  0.44822336  0.43742984    -0.17900
C671        C  0.94119495  0.42835140  0.45469881     0.10400
C672        C  0.93411742  0.39658836  0.45788108    -0.06700
C673        C  0.90502676  0.38582744  0.44543595    -0.17900
C674        C  0.88329670  0.40585767  0.42906333     0.10400
S675        S  0.97638885  0.44523381  0.47384812    -0.32900
S676        S  0.84599218  0.38987848  0.41650223    -0.32900
H677        H  0.82930505  0.41463700  0.43247806     0.28500
H678        H  0.97843196  0.42548431  0.50678175     0.28400
H679        H  0.92572235  0.47247438  0.43469356     0.19000
H680        H  0.89923388  0.36155513  0.44824109     0.19000
C681        C  0.89090304  0.06353046  0.33100553    -0.06800
C682        C  0.88895219  0.06881690  0.29010784    -0.17900
C683        C  0.90951308  0.08885160  0.27093776     0.10400
C684        C  0.93225312  0.10486332  0.29325856    -0.06700
C685        C  0.93424936  0.09931766  0.33424028    -0.17900
C686        C  0.91426382  0.07852141  0.35314063     0.10400
S687        S  0.90626152  0.09160384  0.21785793    -0.32900
S688        S  0.92099442  0.07069710  0.40486652    -0.32900
H689        H  0.91565484  0.03872485  0.40163482     0.28500
H690        H  0.93813033  0.08811349  0.21133040     0.28400
H691        H  0.87143163  0.05690602  0.27276807     0.19000
H692        H  0.95186301  0.11093008  0.35173515     0.19000
C693        C  0.76985719  0.50503756  0.47425299    -0.06400
C694        C  0.77334255  0.48290613  0.50404590    -0.17900
C695        C  0.75620163  0.48761710  0.03974402     0.10400
C696        C  0.72955539  0.50630343  0.03967972    -0.06700
C697        C  0.72449528  0.02597697  0.00738514    -0.17900
C698        C  0.74582640  0.02668103  0.47718427     0.10400
S699        S  0.76742833  0.46403675  0.08117135    -0.32900
S700        S  0.73832364  0.05501264  0.43943245    -0.32900
H701        H  0.74547134  0.03565135  0.40733293     0.28500
H702        H  0.76040944  0.48653976  0.10979829     0.28400
H703        H  0.79200828  0.46646433  0.50212857     0.19000
H704        H  0.70420322  0.04037759  0.00679445     0.19000
C705        C  0.76441940  0.49637427  0.28997786    -0.06800
C706        C  0.74940870  0.02390214  0.28022146    -0.17900
C707        C  0.72852404  0.02546603  0.24854246     0.10400
C708        C  0.72211525  0.49868010  0.22587067    -0.06700
C709        C  0.73645902  0.47094541  0.23628801    -0.17900
C710        C  0.75720948  0.46941512  0.26806615     0.10400
S711        S  0.70979460  0.06173966  0.23857792    -0.32900
S712        S  0.77293217  0.43218484  0.27950751    -0.32900
H713        H  0.76772457  0.43491450  0.32052595     0.28500
H714        H  0.72638275  0.07982894  0.26606842     0.28400
H715        H  0.75440959  0.04453586  0.29724103     0.19000
H716        H  0.73154211  0.45018406  0.21943772     0.19000
C717        C  0.56422087  0.38973807  0.04594274    -0.06800
C718        C  0.58065605  0.40992114  0.02110103    -0.17900
C719        C  0.60193809  0.43129951  0.03643427     0.10400
C720        C  0.60666262  0.43318774  0.07789495    -0.06700
C721        C  0.59096375  0.41228387  0.10263707    -0.17900
C722        C  0.57008241  0.39049810  0.08718306     0.10400
S723        S  0.62288367  0.45473468  0.00126192    -0.32900
S724        S  0.55243201  0.36383667  0.12153330    -0.32900
H725        H  0.55329923  0.33835574  0.09571602     0.28500
H726        H  0.65120822  0.45324914  0.02158414     0.28400
H727        H  0.57568662  0.40921907  0.49016438     0.19000
H728        H  0.59476103  0.41308159  0.13438494     0.19000
C729        C  0.55768139  0.10307587  0.20556294    -0.06800
C730        C  0.58700579  0.11386035  0.19427840    -0.17900
C731        C  0.60888787  0.09396780  0.17802219     0.10400
C732        C  0.60133095  0.06242492  0.17259594    -0.06700
C733        C  0.57214965  0.05159272  0.18462205    -0.17900
C734        C  0.55036515  0.07145486  0.20110700     0.10400
S735        S  0.64618748  0.11021030  0.16608308    -0.32900
S736        S  0.51406832  0.05482070  0.21688569    -0.32900
H737        H  0.01165297  0.07445132  0.25137088     0.28500
H738        H  0.66288928  0.08499722  0.18052702     0.28400
H739        H  0.59282659  0.13806960  0.19779356     0.19000
H740        H  0.56621584  0.02741309  0.18112442     0.19000
In741      In  0.66378146  0.99833503  0.62892891     1.36900
C742        C  0.70590137  0.00187912  0.57181787     0.76900
O743        O  0.69597048  0.02126515  0.67162546    -0.61500
O744        O  0.68700902  0.47355939  0.67938963    -0.52400
C745        C  0.62345666  0.03902290  0.65571638     0.69600
O746        O  0.64269106  0.04543732  0.62875694    -0.47300
C747        C  0.62638394  0.45608077  0.59715607     0.74300
O748        O  0.68734432  0.02348832  0.57892138    -0.59200
O749        O  0.64062091  0.45162008  0.62932455    -0.49200
O750        O  0.70231265  0.47857365  0.59375834    -0.55600
C751        C  0.70099236  0.49742223  0.69174576     0.84500
O752        O  0.62419298  0.01148087  0.66762168    -0.57500
O753        O  0.63074699  0.48238753  0.58219435    -0.60800
In754      In  0.82967349  0.50092311  0.87965861     1.36900
C755        C  0.86870454  0.04131531  0.84830369     0.76900
O756        O  0.86942667  0.48782082  0.91787965    -0.61500
O757        O  0.84898188  0.45301837  0.88176954    -0.52400
C758        C  0.79185493  0.50538986  0.94083720     0.69600
O759        O  0.80378192  0.02884624  0.92468280    -0.47300
C760        C  0.78748407  0.49635526  0.82281066     0.74300
O761        O  0.85720124  0.04499728  0.88235123    -0.59200
O762        O  0.80791815  0.47616247  0.82799798    -0.49200
O763        O  0.85981955  0.01730240  0.83043198    -0.55600
C764        C  0.86909347  0.45986120  0.90757793     0.84500
O765        O  0.79979767  0.47994173  0.92619627    -0.57500
O766        O  0.78905214  0.01865169  0.84676005    -0.60800
In767      In  0.99764786  0.33229794  0.99544056     1.36900
C768        C  0.53972389  0.36893371  0.52847707     0.76900
O769        O  0.98444376  0.37499496  0.96243578    -0.61500
O770        O  0.94977460  0.35115396  0.49322924    -0.52400
C771        C  0.00229226  0.29646181  0.93132152     0.69600
O772        O  0.52565129  0.31074267  0.94501525    -0.47300
C773        C  0.99229373  0.29128050  0.55316623     0.74300
O774        O  0.54392116  0.35740021  0.99384142    -0.59200
O775        O  0.97103755  0.30951777  0.54371661    -0.49200
O776        O  0.51478584  0.36167426  0.54549281    -0.55600
C777        C  0.95650912  0.37390235  0.97268154     0.84500
O778        O  0.97756716  0.30039796  0.95010268    -0.57500
O779        O  0.51598163  0.29381792  0.53253892    -0.60800
In780      In  0.99454969  0.16678577  0.74426936     1.36900
C781        C  0.00140043  0.20842957  0.80212759     0.76900
O782        O  0.51503639  0.19338692  0.69423131    -0.61500
O783        O  0.96594708  0.19361601  0.70010046    -0.52400
C784        C  0.53578352  0.12526566  0.71983204     0.69600
O785        O  0.54286641  0.14677691  0.74353283    -0.47300
C786        C  0.95393481  0.12717527  0.77486482     0.74300
O787        O  0.52363222  0.19135539  0.79059067    -0.59200
O788        O  0.94941770  0.14085239  0.74239416    -0.49200
O789        O  0.97648391  0.20374733  0.78370765    -0.55600
C790        C  0.98913951  0.20225835  0.68027983     0.84500
O791        O  0.50796464  0.12491425  0.70876194    -0.57500
O792        O  0.97901164  0.13435670  0.79168568    -0.60800
C793        C  0.98734283  0.22254184  0.64525912    -0.06800
C794        C  0.96601798  0.24665467  0.64504288    -0.17900
C795        C  0.96699734  0.26952998  0.61572296     0.10400
C796        C  0.98954794  0.26810859  0.58534192    -0.06700
C797        C  0.50997527  0.24287095  0.58499730    -0.17900
C798        C  0.50905876  0.22013554  0.61425089     0.10400
S799        S  0.93993802  0.30059301  0.62025795    -0.32900
S800        S  0.53494673  0.18806648  0.60896325    -0.32900
H801        H  0.51408724  0.16595726  0.62413433     0.28500
H802        H  0.96255805  0.32381969  0.61549611     0.28400
H803        H  0.94948909  0.24859323  0.66899258     0.19000
H804        H  0.52684202  0.24091200  0.56142638     0.19000
C805        C  0.00377514  0.27646527  0.89582640    -0.06800
C806        C  0.52941954  0.25678062  0.89039576    -0.17900
C807        C  0.52944924  0.23401665  0.86070108     0.10400
C808        C  0.00382170  0.23172858  0.83444661    -0.06700
C809        C  0.97912480  0.25220370  0.83896678    -0.17900
C810        C  0.97884804  0.27437399  0.86897563     0.10400
S811        S  0.56161106  0.20803361  0.85994011    -0.32900
S812        S  0.94602686  0.29963219  0.87083406    -0.32900
H813        H  0.96292071  0.32584669  0.88306611     0.28500
H814        H  0.54277723  0.18138839  0.85991945     0.28400
H815        H  0.54855774  0.25811426  0.91095853     0.19000
H816        H  0.95965757  0.25105778  0.81887385     0.19000
C817        C  0.89066157  0.43733879  0.92493931    -0.06800
C818        C  0.91966545  0.44808662  0.93788490    -0.17900
C819        C  0.94099204  0.42822083  0.95525555     0.10400
C820        C  0.93372451  0.39653320  0.95883187    -0.06700
C821        C  0.90452003  0.38584622  0.94679824    -0.17900
C822        C  0.88285463  0.40587022  0.93032378     0.10400
S823        S  0.97641278  0.44499433  0.97389657    -0.32900
S824        S  0.84539589  0.39001662  0.91831667    -0.32900
H825        H  0.82899218  0.41496299  0.93429742     0.28500
H826        H  0.97885309  0.42514248  0.00667788     0.28400
H827        H  0.92571639  0.47227748  0.93478809     0.19000
H828        H  0.89860780  0.36162419  0.94994506     0.19000
C829        C  0.89074096  0.06319660  0.83023308    -0.06800
C830        C  0.88829265  0.06904899  0.78950288    -0.17900
C831        C  0.90873720  0.08924624  0.77035725     0.10400
C832        C  0.93188819  0.10477027  0.79256890    -0.06700
C833        C  0.93438983  0.09859340  0.83334244    -0.17900
C834        C  0.91448139  0.07772642  0.85219080     0.10400
S835        S  0.90472902  0.09291923  0.71745438    -0.32900
S836        S  0.92169975  0.06934950  0.90366453    -0.32900
H837        H  0.91587962  0.03748019  0.90012253     0.28500
H838        H  0.93646032  0.08927422  0.71004043     0.28400
H839        H  0.87044171  0.05751659  0.77230583     0.19000
H840        H  0.95230115  0.10982137  0.85074474     0.19000
C841        C  0.77038883  0.50698538  0.97447627    -0.06400
C842        C  0.77577774  0.48769458  0.00689711    -0.17900
C843        C  0.75397873  0.48226331  0.53710631     0.10400
C844        C  0.72925205  0.50331859  0.53977835    -0.06700
C845        C  0.72589584  0.02563958  0.50982831    -0.17900
C846        C  0.74450993  0.02643064  0.97478922     0.10400
S847        S  0.76326041  0.45495677  0.57541000    -0.32900
S848        S  0.73476240  0.05095302  0.93362635    -0.32900
H849        H  0.74405564  0.03013030  0.90408410     0.28500
H850        H  0.75985731  0.47641017  0.60640991     0.28400
H851        H  0.79590428  0.47299305  0.00700614     0.19000
H852        H  0.70702331  0.04181724  0.51118713     0.19000
C853        C  0.76413580  0.49522337  0.79064021    -0.06800
C854        C  0.74944378  0.02283421  0.78042941    -0.17900
C855        C  0.72854412  0.02427898  0.74880252     0.10400
C856        C  0.72197415  0.49733039  0.72649262    -0.06700
C857        C  0.73606459  0.46956283  0.73728961    -0.17900
C858        C  0.75670733  0.46811646  0.76916764     0.10400
S859        S  0.70982214  0.06051716  0.73859631    -0.32900
S860        S  0.77186947  0.43081755  0.78146184    -0.32900
H861        H  0.76705227  0.43430475  0.82246402     0.28500
H862        H  0.72731822  0.07891998  0.76480351     0.28400
H863        H  0.75457530  0.04358838  0.79717965     0.19000
H864        H  0.73098680  0.44869438  0.72069216     0.19000
C865        C  0.56309882  0.38961195  0.54664541    -0.06800
C866        C  0.57962258  0.40979200  0.52189679    -0.17900
C867        C  0.60113385  0.43087706  0.53731678     0.10400
C868        C  0.60588115  0.43257311  0.57877567    -0.06700
C869        C  0.58998041  0.41177892  0.60344348    -0.17900
C870        C  0.56895185  0.39020059  0.58788606     0.10400
S871        S  0.62248278  0.45405347  0.50225527    -0.32900
S872        S  0.55117799  0.36350470  0.62207948    -0.32900
H873        H  0.55250543  0.33800109  0.59633309     0.28500
H874        H  0.65079929  0.45180812  0.52247412     0.28400
H875        H  0.57671413  0.40922501  0.98937428     0.19000
H876        H  0.59379592  0.41244803  0.63519137     0.19000
C877        C  0.55838637  0.10267813  0.70540985    -0.06800
C878        C  0.58758979  0.11334444  0.69343108    -0.17900
C879        C  0.60931925  0.09325505  0.67718471     0.10400
C880        C  0.60172038  0.06164597  0.67250973    -0.06700
C881        C  0.57266831  0.05096070  0.68522943    -0.17900
C882        C  0.55105579  0.07100833  0.70170213     0.10400
S883        S  0.64648631  0.10933119  0.66423291    -0.32900
S884        S  0.51495355  0.05455675  0.71849091    -0.32900
H885        H  0.01067567  0.07396187  0.75043427     0.28500
H886        H  0.66337006  0.08438959  0.67913274     0.28400
H887        H  0.59342120  0.13759639  0.69638810     0.19000
H888        H  0.56670939  0.02673708  0.68233013     0.19000
In889      In  0.66371444  0.49981389  0.12821612     1.36900
C890        C  0.70592621  0.50438118  0.07133868     0.76900
O891        O  0.69539801  0.52283893  0.17160308    -0.61500
O892        O  0.68761438  0.97482811  0.17814120    -0.52400
C893        C  0.62318507  0.54009641  0.15551266     0.69600
O894        O  0.64258045  0.54688829  0.12889539    -0.47300
C895        C  0.62688806  0.95694708  0.09629653     0.74300
O896        O  0.68629722  0.52520315  0.07748507    -0.59200
O897        O  0.64120339  0.95269930  0.12844802    -0.49200
O898        O  0.70332955  0.98135723  0.09397297    -0.55600
C899        C  0.70104038  0.99880679  0.19113117     0.84500
O900        O  0.62387320  0.51239901  0.16682272    -0.57500
O901        O  0.63089907  0.98331971  0.08138085    -0.60800
In902      In  0.82962882  0.00108150  0.37963872     1.36900
C903        C  0.86882664  0.54164111  0.34892651     0.76900
O904        O  0.86917925  0.98776521  0.41813932    -0.61500
O905        O  0.84938509  0.95332896  0.38089281    -0.52400
C906        C  0.79144826  0.00426426  0.44059790     0.69600
O907        O  0.80394360  0.52805720  0.42584495    -0.47300
C908        C  0.78765413  0.99730217  0.32234794     0.74300
O909        O  0.85698947  0.54534394  0.38279374    -0.59200
O910        O  0.80795197  0.97697196  0.32751893    -0.49200
O911        O  0.86016148  0.51758816  0.33097541    -0.55600
C912        C  0.86923159  0.95997264  0.40711909     0.84500
O913        O  0.79910387  0.97917795  0.42469475    -0.57500
O914        O  0.78918806  0.51940925  0.34659873    -0.60800
In915      In  0.99815220  0.83245379  0.49510844     1.36900
C916        C  0.54067051  0.86911557  0.02790232     0.76900
O917        O  0.98505821  0.87550992  0.46264608    -0.61500
O918        O  0.94956708  0.85148618  0.99475946    -0.52400
C919        C  0.00253985  0.79640209  0.43106748     0.69600
O920        O  0.52512948  0.81061305  0.44561584    -0.47300
C921        C  0.99184125  0.79075813  0.05295575     0.74300
O922        O  0.54287250  0.85763614  0.49422041    -0.59200
O923        O  0.97039472  0.80869208  0.04325097    -0.49200
O924        O  0.51559385  0.86223947  0.04485365    -0.55600
C925        C  0.95693026  0.87397472  0.47192492     0.84500
O926        O  0.97792960  0.80026035  0.45011562    -0.57500
O927        O  0.51643193  0.79408875  0.03232378    -0.60800
In928      In  0.99505330  0.66649186  0.24427962     1.36900
C929        C  0.00165088  0.70815930  0.30204304     0.76900
O930        O  0.51451098  0.69290473  0.19334977    -0.61500
O931        O  0.96631227  0.69290772  0.19989366    -0.52400
C932        C  0.53504343  0.62564129  0.22002416     0.69600
O933        O  0.54218972  0.64734362  0.24342002    -0.47300
C934        C  0.95441416  0.62708147  0.27531635     0.74300
O935        O  0.52323506  0.69183581  0.29036288    -0.59200
O936        O  0.95005646  0.64035169  0.24253130    -0.49200
O937        O  0.97689118  0.70372569  0.28317406    -0.55600
C938        C  0.98952911  0.70225569  0.18064121     0.84500
O939        O  0.50717366  0.62513171  0.20915230    -0.57500
O940        O  0.97939369  0.63449568  0.29220858    -0.60800
C941        C  0.98760912  0.72246486  0.14558302    -0.06800
C942        C  0.96598423  0.74630749  0.14512945    -0.17900
C943        C  0.96664697  0.76896987  0.11552601     0.10400
C944        C  0.98919764  0.76760300  0.08514150    -0.06700
C945        C  0.51010988  0.74333880  0.08494031    -0.17900
C946        C  0.50879474  0.72035820  0.11385268     0.10400
S947        S  0.93919490  0.79972217  0.11969078    -0.32900
S948        S  0.53405403  0.68785356  0.10798736    -0.32900
H949        H  0.51280666  0.66602408  0.12294138     0.28500
H950        H  0.96154455  0.82319885  0.11484846     0.28400
H951        H  0.94944065  0.74819403  0.16906999     0.19000
H952        H  0.52693685  0.74128727  0.06133890     0.19000
C953        C  0.00391219  0.77626385  0.39567961    -0.06800
C954        C  0.52898847  0.75686527  0.39072444    -0.17900
C955        C  0.52905732  0.73420333  0.36090244     0.10400
C956        C  0.00396332  0.73143217  0.33439884    -0.06700
C957        C  0.97919886  0.75182387  0.33896990    -0.17900
C958        C  0.97891359  0.77403285  0.36894357     0.10400
S959        S  0.56111845  0.70809764  0.36021738    -0.32900
S960        S  0.94602089  0.79919205  0.37085985    -0.32900
H961        H  0.96286086  0.82547500  0.38296386     0.28500
H962        H  0.54218909  0.68152435  0.35977064     0.28400
H963        H  0.54802489  0.75804151  0.41145303     0.19000
H964        H  0.95969503  0.75059388  0.31893900     0.19000
C965        C  0.89092212  0.93740452  0.42416484    -0.06800
C966        C  0.91983045  0.94819803  0.43738736    -0.17900
C967        C  0.94119834  0.92832451  0.45468287     0.10400
C968        C  0.93411092  0.89656423  0.45787274    -0.06700
C969        C  0.90501517  0.88581151  0.44543976    -0.17900
C970        C  0.88329484  0.90584475  0.42905101     0.10400
S971        S  0.97638254  0.94520246  0.47387118    -0.32900
S972        S  0.84598282  0.88987707  0.41650598    -0.32900
H973        H  0.82930701  0.91465436  0.43245241     0.28500
H974        H  0.97844933  0.92541043  0.50675995     0.28400
H975        H  0.92574737  0.97244644  0.43463946     0.19000
H976        H  0.89921212  0.86154253  0.44826245     0.19000
C977        C  0.89091650  0.56354789  0.33098954    -0.06800
C978        C  0.88898126  0.56880786  0.29008376    -0.17900
C979        C  0.90954398  0.58883731  0.27090537     0.10400
C980        C  0.93227565  0.60486419  0.29322281    -0.06700
C981        C  0.93425111  0.59934936  0.33421355    -0.17900
C982        C  0.91426001  0.57856557  0.35312473     0.10400
S983        S  0.90629867  0.59156991  0.21782403    -0.32900
S984        S  0.92095889  0.57080356  0.40487304    -0.32900
H985        H  0.91560818  0.53882957  0.40170957     0.28500
H986        H  0.93815740  0.58797727  0.21131350     0.28400
H987        H  0.87147020  0.55688264  0.27274593     0.19000
H988        H  0.95185219  0.61097686  0.35171039     0.19000
C989        C  0.76987063  0.00507277  0.47424677    -0.06400
C990        C  0.77347724  0.98308309  0.50418405    -0.17900
C991        C  0.75616409  0.98748326  0.03971318     0.10400
C992        C  0.72953475  0.00619516  0.03967686    -0.06700
C993        C  0.72450682  0.52606635  0.00737172    -0.17900
C994        C  0.74592521  0.52675852  0.47733958     0.10400
S995        S  0.76737017  0.96385122  0.08110060    -0.32900
S996        S  0.73859759  0.55532228  0.43982062    -0.32900
H997        H  0.74565327  0.53608648  0.40756274     0.28500
H998        H  0.76046619  0.98637586  0.10974738     0.28400
H999        H  0.79222650  0.96672918  0.50237034     0.19000
H1000       H  0.70420421  0.54045293  0.00676624     0.19000
C1001       C  0.76437246  0.99634779  0.29002299    -0.06800
C1002       C  0.74949197  0.52394116  0.28015006    -0.17900
C1003       C  0.72856580  0.52550259  0.24851547     0.10400
C1004       C  0.72212433  0.99865247  0.22585969    -0.06700
C1005       C  0.73650223  0.97093214  0.23624936    -0.17900
C1006       C  0.75722398  0.96940115  0.26805340     0.10400
S1007       S  0.70987074  0.56179212  0.23852679    -0.32900
S1008       S  0.77299015  0.93218252  0.27944932    -0.32900
H1009       H  0.76768090  0.93484077  0.32045421     0.28500
H1010       H  0.72585957  0.57971345  0.26676503     0.28400
H1011       H  0.75456779  0.54458997  0.29710637     0.19000
H1012       H  0.73163142  0.95017773  0.21935678     0.19000
C1013       C  0.56416066  0.88976584  0.04595686    -0.06800
C1014       C  0.58060664  0.90995261  0.02113264    -0.17900
C1015       C  0.60191428  0.93129600  0.03648258     0.10400
C1016       C  0.60665325  0.93314711  0.07794269    -0.06700
C1017       C  0.59094110  0.91224258  0.10266834    -0.17900
C1018       C  0.57002921  0.89049417  0.08719736     0.10400
S1019       S  0.62287483  0.95473788  0.00133179    -0.32900
S1020       S  0.55233578  0.86384617  0.12152711    -0.32900
H1021       H  0.55327430  0.83835501  0.09573097     0.28500
H1022       H  0.65121241  0.95315550  0.02161138     0.28400
H1023       H  0.57564834  0.90926171  0.49017980     0.19000
H1024       H  0.59474476  0.91301648  0.13441613     0.19000
C1025       C  0.55770176  0.60313899  0.20555483    -0.06800
C1026       C  0.58702243  0.61391935  0.19424881    -0.17900
C1027       C  0.60888797  0.59402469  0.17796121     0.10400
C1028       C  0.60132116  0.56248391  0.17253753    -0.06700
C1029       C  0.57214353  0.55165689  0.18458388    -0.17900
C1030       C  0.55037341  0.57152114  0.20109238     0.10400
S1031       S  0.64617892  0.61026157  0.16596776    -0.32900
S1032       S  0.51407509  0.55489276  0.21687929    -0.32900
H1033       H  0.01162434  0.57441848  0.25136788     0.28500
H1034       H  0.66288728  0.58507413  0.18047703     0.28400
H1035       H  0.59285054  0.63812672  0.19776318     0.19000
H1036       H  0.56620128  0.52747946  0.18108419     0.19000
In1037     In  0.66374690  0.49832290  0.62894666     1.36900
C1038       C  0.70586025  0.50179915  0.57181840     0.76900
O1039       O  0.69598048  0.52125052  0.67160054    -0.61500
O1040       O  0.68708156  0.97355239  0.67933146    -0.52400
C1041       C  0.62343322  0.53902441  0.65572123     0.69600
O1042       O  0.64267627  0.54543230  0.62876889    -0.47300
C1043       C  0.62645111  0.95605689  0.59714240     0.74300
O1044       O  0.68731161  0.52342026  0.57890309    -0.59200
O1045       O  0.64068504  0.95161366  0.62931703    -0.49200
O1046       O  0.70235851  0.97863343  0.59372296    -0.55600
C1047       C  0.70102493  0.99742542  0.69172729     0.84500
O1048       O  0.62416574  0.51148586  0.66763970    -0.57500
O1049       O  0.63079881  0.98236516  0.58217819    -0.60800
In1050     In  0.82968170  0.00090363  0.87967527     1.36900
C1051       C  0.86869013  0.54136355  0.84831031     0.76900
O1052       O  0.86949752  0.98784712  0.91781878    -0.61500
O1053       O  0.84896598  0.95299268  0.88187276    -0.52400
C1054       C  0.79184926  0.00533043  0.94084718     0.69600
O1055       O  0.80378204  0.52889408  0.92463924    -0.47300
C1056       C  0.78752847  0.99637753  0.82278266     0.74300
O1057       O  0.85719010  0.54502807  0.88236072    -0.59200
O1058       O  0.80791517  0.97614685  0.82803379    -0.49200
O1059       O  0.85980584  0.51735774  0.83042577    -0.55600
C1060       C  0.86912501  0.95986702  0.90760792     0.84500
O1061       O  0.79979661  0.97989383  0.92618081    -0.57500
O1062       O  0.78898008  0.51860584  0.84682454    -0.60800
In1063     In  0.99770939  0.83231533  0.99544941     1.36900
C1064       C  0.53975376  0.86892184  0.52849731     0.76900
O1065       O  0.98450999  0.87503097  0.96246615    -0.61500
O1066       O  0.94978119  0.85114592  0.49324670    -0.52400
C1067       C  0.00230342  0.79651378  0.93129801     0.69600
O1068       O  0.52562327  0.81073130  0.94507587    -0.47300
C1069       C  0.99230999  0.79123535  0.55310452     0.74300
O1070       O  0.54382636  0.85750379  0.99379929    -0.59200
O1071       O  0.97104657  0.80946299  0.54365305    -0.49200
O1072       O  0.51483803  0.86164462  0.54555570    -0.55600
C1073       C  0.95657768  0.87394190  0.97272429     0.84500
O1074       O  0.97759469  0.80042424  0.95012626    -0.57500
O1075       O  0.51596678  0.79386838  0.53266098    -0.60800
In1076     In  0.99456624  0.66680371  0.74427820     1.36900
C1077       C  0.00141374  0.70845028  0.80213360     0.76900
O1078       O  0.51501185  0.69340592  0.69426206    -0.61500
O1079       O  0.96598532  0.69363431  0.70009617    -0.52400
C1080       C  0.53574580  0.62526914  0.71978860     0.69600
O1081       O  0.54283078  0.64671721  0.74358201    -0.47300
C1082       C  0.95393840  0.62720621  0.77487309     0.74300
O1083       O  0.52367058  0.69133963  0.79062737    -0.59200
O1084       O  0.94944516  0.64084988  0.74237349    -0.49200
O1085       O  0.97650317  0.70377571  0.78369594    -0.55600
C1086       C  0.98918283  0.70226347  0.68027555     0.84500
O1087       O  0.50794081  0.62498016  0.70865846    -0.57500
O1088       O  0.97899518  0.63441766  0.79172085    -0.60800
C1089       C  0.98738827  0.72252933  0.64523838    -0.06800
C1090       C  0.96606690  0.74664429  0.64501670    -0.17900
C1091       C  0.96703533  0.76950346  0.61567829     0.10400
C1092       C  0.98956556  0.76806014  0.58527570    -0.06700
C1093       C  0.50992188  0.74291162  0.58507317    -0.17900
C1094       C  0.50898909  0.72015973  0.61429999     0.10400
S1095       S  0.93999368  0.80058094  0.62022450    -0.32900
S1096       S  0.53481746  0.68805066  0.60894060    -0.32900
H1097       H  0.51393403  0.66596781  0.62412094     0.28500
H1098       H  0.96262270  0.82379582  0.61543735     0.28400
H1099       H  0.94955229  0.74860039  0.66897938     0.19000
H1100       H  0.52677722  0.74094607  0.56148940     0.19000
C1101       C  0.00377207  0.77650855  0.89581040    -0.06800
C1102       C  0.52941765  0.75677681  0.89046052    -0.17900
C1103       C  0.52947525  0.73402506  0.86074831     0.10400
C1104       C  0.00382593  0.73174865  0.83445696    -0.06700
C1105       C  0.97908673  0.75216652  0.83903358    -0.17900
C1106       C  0.97880884  0.77435173  0.86902367     0.10400
S1107       S  0.56161034  0.70800860  0.86005594    -0.32900
S1108       S  0.94594580  0.79955376  0.87092565    -0.32900
H1109       H  0.96280941  0.82580303  0.88310267     0.28500
H1110       H  0.54274744  0.68138377  0.85999877     0.28400
H1111       H  0.54853162  0.75809442  0.91106132     0.19000
H1112       H  0.95959008  0.75097071  0.81899258     0.19000
C1113       C  0.89070150  0.93735754  0.92498959    -0.06800
C1114       C  0.91970747  0.94811735  0.93791744    -0.17900
C1115       C  0.94104751  0.92826309  0.95528733     0.10400
C1116       C  0.93378732  0.89657477  0.95889050    -0.06700
C1117       C  0.90457887  0.88587951  0.94688687    -0.17900
C1118       C  0.88290555  0.90588860  0.93040186     0.10400
S1119       S  0.97647741  0.94505447  0.97387704    -0.32900
S1120       S  0.84545963  0.89000578  0.91839249    -0.32900
H1121       H  0.82903687  0.91493566  0.93438232     0.28500
H1122       H  0.97898966  0.92518024  0.00662528     0.28400
H1123       H  0.92575310  0.97230718  0.93479868     0.19000
H1124       H  0.89867254  0.86165770  0.95005260     0.19000
C1125       C  0.89072315  0.56325208  0.83024867    -0.06800
C1126       C  0.88825486  0.56913074  0.78952764    -0.17900
C1127       C  0.90872004  0.58930167  0.77037493     0.10400
C1128       C  0.93188831  0.60480518  0.79257992    -0.06700
C1129       C  0.93440792  0.59860466  0.83334644    -0.17900
C1130       C  0.91449928  0.57773616  0.85219254     0.10400
S1131       S  0.90474156  0.59293341  0.71746422    -0.32900
S1132       S  0.92177675  0.56928021  0.90363118    -0.32900
H1133       H  0.91588447  0.53742634  0.90004561     0.28500
H1134       H  0.93647171  0.58923280  0.71008752     0.28400
H1135       H  0.87038566  0.55762032  0.77233669     0.19000
H1136       H  0.95234239  0.60980346  0.85074099     0.19000
C1137       C  0.77037122  0.00689926  0.97447545    -0.06400
C1138       C  0.77574161  0.98757408  0.00686770    -0.17900
C1139       C  0.75412268  0.98247796  0.53725057     0.10400
C1140       C  0.72929229  0.00341949  0.53978677    -0.06700
C1141       C  0.72597609  0.52567448  0.50996323    -0.17900
C1142       C  0.74452081  0.52650896  0.97477396     0.10400
S1143       S  0.76354704  0.95537856  0.57573971    -0.32900
S1144       S  0.73476438  0.55100206  0.93358631    -0.32900
H1145       H  0.74401734  0.53013780  0.90407141     0.28500
H1146       H  0.75990838  0.97689720  0.60661706     0.28400
H1147       H  0.79585791  0.97285860  0.00695877     0.19000
H1148       H  0.70719206  0.54194860  0.51142744     0.19000
C1149       C  0.76419622  0.99524975  0.79059174    -0.06800
C1150       C  0.74940745  0.52281764  0.78046290    -0.17900
C1151       C  0.72852054  0.52427450  0.74882114     0.10400
C1152       C  0.72201334  0.99733603  0.72646516    -0.06700
C1153       C  0.73614157  0.96958214  0.73723045    -0.17900
C1154       C  0.75678864  0.96814357  0.76910290     0.10400
S1155       S  0.70988107  0.56054351  0.73852511    -0.32900
S1156       S  0.77196572  0.93085056  0.78139042    -0.32900
H1157       H  0.76704387  0.93429980  0.82237796     0.28500
H1158       H  0.72678523  0.57880051  0.76551962     0.28400
H1159       H  0.75458116  0.54357334  0.79718070     0.19000
H1160       H  0.73108090  0.94871302  0.72061946     0.19000
C1161       C  0.56315714  0.88957934  0.54665154    -0.06800
C1162       C  0.57963536  0.90979598  0.52190314    -0.17900
C1163       C  0.60114852  0.93088472  0.53731138     0.10400
C1164       C  0.60596284  0.93253246  0.57876197    -0.06700
C1165       C  0.59012150  0.91168880  0.60342552    -0.17900
C1166       C  0.56907163  0.89012417  0.58787990     0.10400
S1167       S  0.62238910  0.95415140  0.50223997    -0.32900
S1168       S  0.55132211  0.86341480  0.62207720    -0.32900
H1169       H  0.55258753  0.83793015  0.59629455     0.28500
H1170       H  0.65075208  0.95191376  0.52235232     0.28400
H1171       H  0.57665725  0.90928405  0.98940632     0.19000
H1172       H  0.59398337  0.91232234  0.63516581     0.19000
C1173       C  0.55833688  0.60268373  0.70534004    -0.06800
C1174       C  0.58753799  0.61335215  0.69336035    -0.17900
C1175       C  0.60927475  0.59326196  0.67713585     0.10400
C1176       C  0.60168580  0.56164884  0.67248561    -0.06700
C1177       C  0.57262954  0.55096320  0.68519284    -0.17900
C1178       C  0.55100801  0.57101407  0.70164039     0.10400
S1179       S  0.64643891  0.60934286  0.66418300    -0.32900
S1180       S  0.51489917  0.55457076  0.71841672    -0.32900
H1181       H  0.01059099  0.57400571  0.75042173     0.28500
H1182       H  0.66332670  0.58442136  0.67913223     0.28400
H1183       H  0.59336426  0.63760622  0.69630859     0.19000
H1184       H  0.56667545  0.52673733  0.68230560     0.19000
loop_ 
_geom_bond_atom_site_label_1 
_geom_bond_atom_site_label_2 
_geom_bond_distance 
_geom_bond_site_symmetry_2 
_ccdc_geom_bond_type 
In1           O3   2.230   1_565  S
In1          O12   2.235   1_565  S
In1           O6   2.246   1_565  S
In1           O8   2.251   1_565  S
In1         O300   2.256       .  S
In1         O305   2.250       .  S
In1         O306   2.228       .  S
In1         O309   2.232       .  S
C2            O8   1.264       .  A
C2          O306   1.259   1_545  A
C2          C400   1.483       .  S
O3          C307   1.258   1_545  A
O4         In297   2.256       .  S
O4           C11   1.264       .  A
C5           O12   1.262       .  A
C5            O6   1.263       .  A
C5          C140   1.480       .  S
C7            O9   1.264       .  A
C7           O13   1.261       .  A
C7          C128   1.480       .  S
O9         In297   2.250       .  S
O10        In297   2.228       .  S
O10         C298   1.259       .  A
C11         O299   1.258       .  A
C11         C116   1.483       .  S
O13        In297   2.232       .  S
In14         O16   2.229       .  S
In14         O17   2.249       .  S
In14         O25   2.225       .  S
In14         O22   2.248       .  S
In14        O315   2.250       .  S
In14        O317   2.245       .  S
In14        O319   2.227       .  S
In14        O322   2.225       .  S
C15          O21   1.263       .  A
C15          O23   1.260       .  A
C15          C89   1.473       .  S
O16          C24   1.261       .  A
O17          C24   1.264       .  A
C18          O25   1.260       .  A
C18         O315   1.263       .  A
C18         C101   1.470       .  S
O19        In310   2.250       .  S
O19         C314   1.263       .  A
C20          O22   1.264       .  A
C20         O322   1.261       .  A
C20         C113   1.484       .  S
O21        In310   2.245       .  S
O23        In310   2.227       .  S
C24          C77   1.480       .  S
O26        In310   2.225       .  S
O26         C316   1.261   1_545  A
In27         O29   2.242       .  S
In27         O38   2.232       .  S
In27        O178   2.253       .  S
In27        O624   2.271       .  S
In27        O626   2.243       .  S
In27        O183   2.244       .  S
In27        O776   2.241       .  S
In27        O779   2.238       .  S
C28          O36   1.261       .  A
C28         O182   1.263   1_554  A
C28         C125   1.478       .  S
O29          C37   1.259       .  A
O30        In175   2.255       .  S
O30         C185   1.261       .  A
C31          O38   1.258       .  A
C31         O624   1.261       .  A
C31          C65   1.479       .  S
O32        In619   2.273   1_455  S
O32         C623   1.261       .  A
C33          O35   1.261       .  A
C33         O631   1.262       .  A
C33          C56   1.484       .  S
O34        In619   2.245   1_455  S
O34         C176   1.264       .  A
O35        In175   2.245   1_554  S
O36        In767   2.241   1_454  S
C37         O178   1.261       .  A
C37          C80   1.475       .  S
O39        In767   2.238   1_454  S
O39         C625   1.262   1_455  A
In40         O43   2.267       .  S
In40         O48   2.247       .  S
In40         O49   2.230       .  S
In40         O52   2.231       .  S
In40        O634   2.227       .  S
In40        O643   2.235       .  S
In40        O637   2.243       .  S
In40        O639   2.263       .  S
C41          O49   1.260       .  A
C41         O639   1.261       .  A
C41          C68   1.489       .  S
O42        In632   2.226   1_455  S
O42         C642   1.257   1_455  A
O43          C50   1.261       .  A
C44          O51   1.261       .  A
C44          O45   1.263       .  A
C44         C137   1.475       .  S
O45        In632   2.246   1_455  S
C46          O48   1.263       .  A
C46          O52   1.261       .  A
C46          C92   1.482       .  S
O47        In632   2.260   1_455  S
O47         C633   1.262       .  A
C50         O634   1.257       .  A
C50          C53   1.476       .  S
O51        In632   2.237   1_455  S
C53          C54   1.402       .  A
C53         C650   1.412       .  A
C54          C55   1.402       .  A
C54          H63   1.084       .  S
C55          C56   1.418       .  A
C55          S59   1.801       .  S
C56         C649   1.405       .  A
C57          C58   1.396       .  A
C57         C648   1.405   1_455  A
C57          H64   1.084       .  S
C58         C645   1.411   1_455  A
C58          S60   1.804       .  S
S59          H62   1.408       .  S
S60          H61   1.408       .  S
C65          C70   1.411       .  A
C65         C658   1.405       .  A
C66          C67   1.406       .  A
C66         C657   1.405       .  A
C66          H75   1.082       .  S
C67         C660   1.418       .  A
C67          S71   1.801       .  S
C68          C69   1.406       .  A
C68         C659   1.418       .  A
C69          C70   1.396       .  A
C69          H76   1.083       .  S
C70          S72   1.805       .  S
S71          H74   1.408       .  S
S72          H73   1.407       .  S
C77          C78   1.405       .  A
C77          C82   1.415       .  A
C78          C79   1.399       .  A
C78          H87   1.084       .  S
C79          C80   1.412       .  A
C79          S83   1.804       .  S
C80          C81   1.403       .  A
C81          C82   1.400       .  A
C81          H88   1.084       .  S
C82          S84   1.802       .  S
S83          H86   1.407       .  S
S84          H85   1.407       .  S
C89          C90   1.402       .  A
C89          C94   1.410       .  A
C90          C91   1.398       .  A
C90          H99   1.084       .  S
C91          C92   1.416       .  A
C91          S95   1.801       .  S
C92          C93   1.407       .  A
C93          C94   1.398       .  A
C93         H100   1.084       .  S
C94          S96   1.803       .  S
S95          H98   1.408       .  S
S96          H97   1.407       .  S
C101        C102   1.399       .  A
C101        C402   1.411       .  A
C102        C251   1.396       .  A
C102        H111   1.085       .  S
C103        C104   1.417       .  A
C103        C250   1.396       .  A
C103        S107   1.802       .  S
C104        C298   1.483       .  S
C104        C401   1.406       .  A
C105        C400   1.406       .  A
C105        C254   1.400   1_554  A
C105        H112   1.084       .  S
C106        C397   1.411       .  A
C106        C253   1.401       .  A
C106        S108   1.803       .  S
S107        H110   1.408       .  S
S108        H109   1.406       .  S
C113        C118   1.415       .  A
C113        C410   1.405       .  A
C114        C115   1.401       .  A
C114        C409   1.405   1_545  A
C114        H123   1.083       .  S
C115        C412   1.416   1_545  A
C115        S119   1.810       .  S
C116        C117   1.404       .  A
C116        C411   1.416       .  A
C117        C118   1.400       .  A
C117        H124   1.084       .  S
C118        S120   1.801       .  S
S119        H122   1.407       .  S
S120        H121   1.408       .  S
C125        C126   1.402       .  A
C125        C130   1.415       .  A
C126        C127   1.399       .  A
C126        H283   1.084   1_554  S
C127        C128   1.416       .  A
C127        S131   1.803       .  S
C128        C129   1.404       .  A
C129        C130   1.401       .  A
C129        H136   1.084       .  S
C130        S132   1.803       .  S
S131        H134   1.408       .  S
S132        H133   1.407       .  S
H135        C274   1.084       .  S
C137        C138   1.402       .  A
C137        C142   1.412       .  A
C138        C139   1.401       .  A
C138        H147   1.084       .  S
C139        C140   1.415       .  A
C139        S143   1.802       .  S
C140        C141   1.405       .  A
C141        C142   1.399       .  A
C141        H148   1.084       .  S
C142        S144   1.804       .  S
S143        H146   1.405       .  S
S144        H737   1.407       .  S
H145        S736   1.407       .  S
In149       O151   2.233   1_565  S
In149       O448   2.259       .  S
In149       O160   2.235   1_565  S
In149       O154   2.246   1_565  S
In149       O156   2.255   1_565  S
In149       O453   2.252       .  S
In149       O454   2.224       .  S
In149       O457   2.236       .  S
C150        O156   1.264       .  A
C150        O454   1.259   1_545  A
C150        C548   1.482       .  S
O151        C455   1.259   1_545  A
O152       In445   2.259       .  S
O152        C159   1.264       .  A
C153        O160   1.262       .  A
C153        O154   1.263       .  A
C153        C288   1.479       .  S
C155        O157   1.264       .  A
C155        O161   1.261       .  A
C155        C276   1.482       .  S
O157       In445   2.252       .  S
O158       In445   2.224       .  S
O158        C446   1.259       .  A
C159        O447   1.259       .  A
C159        C264   1.485       .  S
O161       In445   2.236       .  S
In162       O164   2.230       .  S
In162       O165   2.249       .  S
In162       O173   2.224       .  S
In162       O463   2.249       .  S
In162       O465   2.247       .  S
In162       O170   2.245       .  S
In162       O467   2.224       .  S
In162       O470   2.230       .  S
C163        O169   1.264       .  A
C163        O171   1.260       .  A
C163        C237   1.473       .  S
O164        C172   1.261       .  A
O165        C172   1.265       .  A
C166        O173   1.260       .  A
C166        O463   1.264       .  A
C166        C249   1.472       .  S
O167       In458   2.249       .  S
O167        C462   1.264       .  A
C168        O170   1.264       .  A
C168        O470   1.261       .  A
C168        C261   1.485       .  S
O169       In458   2.246       .  S
O171       In458   2.223       .  S
C172        C225   1.480       .  S
O174       In458   2.230       .  S
O174        C464   1.261   1_545  A
In175       O177   2.244       .  S
In175       O186   2.235       .  S
In175       O772   2.274       .  S
In175       O774   2.245       .  S
In175       O628   2.242   1_556  S
In175       O631   2.238   1_556  S
C176        O184   1.261       .  A
C176        C273   1.479       .  S
O177        C185   1.259       .  A
C179        O186   1.258       .  A
C179        O772   1.261       .  A
C179        C213   1.481       .  S
O180       In767   2.272   1_455  S
O180        C771   1.261       .  A
C181        O183   1.261       .  A
C181        O779   1.262       .  A
C181        C204   1.484       .  S
O182       In767   2.243   1_455  S
O184       In619   2.241   1_455  S
C185        C228   1.477       .  S
O187       In619   2.239   1_455  S
O187        C773   1.262   1_455  A
In188       O782   2.227       .  S
In188       O191   2.267       .  S
In188       O791   2.236       .  S
In188       O785   2.246       .  S
In188       O787   2.260       .  S
In188       O196   2.246       .  S
In188       O197   2.230       .  S
In188       O200   2.234       .  S
C189        O787   1.262       .  A
C189        O197   1.260       .  A
C189        C216   1.489       .  S
O190       In780   2.227   1_455  S
O190        C790   1.257   1_455  A
O191        C198   1.261       .  A
C192        O199   1.261       .  A
C192        O193   1.264       .  A
C192        C285   1.474       .  S
O193       In780   2.243   1_455  S
C194        O196   1.263       .  A
C194        O200   1.261       .  A
C194        C240   1.482       .  S
O195       In780   2.263   1_455  S
O195        C781   1.261       .  A
C198        O782   1.257       .  A
C198        C201   1.476       .  S
O199       In780   2.235   1_455  S
C201        C202   1.402       .  A
C201        C798   1.411       .  A
C202        C203   1.402       .  A
C202        H211   1.084       .  S
C203        C204   1.418       .  A
C203        S207   1.801       .  S
C204        C797   1.405       .  A
C205        C796   1.405   1_455  A
C205        C206   1.397       .  A
C205        H212   1.084       .  S
C206        C793   1.412   1_455  A
C206        S208   1.804       .  S
S207        H210   1.408       .  S
S208        H209   1.408       .  S
C213        C806   1.405       .  A
C213        C218   1.412       .  A
C214        C805   1.405       .  A
C214        C215   1.406       .  A
C214        H223   1.082       .  S
C215        C808   1.418       .  A
C215        S219   1.801       .  S
C216        C807   1.418       .  A
C216        C217   1.406       .  A
C217        C218   1.396       .  A
C217        H224   1.083       .  S
C218        S220   1.804       .  S
S219        H222   1.408       .  S
S220        H221   1.407       .  S
C225        C226   1.405       .  A
C225        C230   1.415       .  A
C226        C227   1.399       .  A
C226        H235   1.084       .  S
C227        C228   1.412       .  A
C227        S231   1.804       .  S
C228        C229   1.403       .  A
C229        C230   1.401       .  A
C229        H236   1.084       .  S
C230        S232   1.802       .  S
S231        H234   1.407   1_556  S
S232        H233   1.408       .  S
C237        C238   1.402       .  A
C237        C242   1.410       .  A
C238        C239   1.398       .  A
C238        H247   1.084       .  S
C239        C240   1.416       .  A
C239        S243   1.801       .  S
C240        C241   1.407       .  A
C241        C242   1.398       .  A
C241        H248   1.084       .  S
C242        S244   1.803       .  S
S243        H246   1.408       .  S
S244        H245   1.408       .  S
C249        C250   1.400   1_556  A
C249        C550   1.412       .  A
C250        H259   1.085       .  S
C251        C252   1.417       .  A
C251        S255   1.803       .  S
C252        C446   1.482       .  S
C252        C549   1.406       .  A
C253        C548   1.406       .  A
C253        H260   1.084       .  S
C254        C545   1.412       .  A
C254        S256   1.803       .  S
S255        H258   1.408       .  S
S256        H257   1.406       .  S
C261        C558   1.405       .  A
C261        C266   1.415       .  A
C262        C557   1.405   1_545  A
C262        C263   1.402       .  A
C262        H271   1.083       .  S
C263        C560   1.416   1_545  A
C263        S267   1.809       .  S
C264        C559   1.416       .  A
C264        C265   1.404       .  A
C265        C266   1.401       .  A
C265        H272   1.084       .  S
C266        S268   1.801       .  S
S267        H270   1.407       .  S
S268        H269   1.408       .  S
C273        C274   1.402       .  A
C273        C278   1.415       .  A
C274        C275   1.400       .  A
C275        C276   1.416       .  A
C275        S279   1.803       .  S
C276        C277   1.404       .  A
C277        C278   1.401       .  A
C277        H284   1.084       .  S
C278        S280   1.803       .  S
S279        H282   1.407       .  S
S280        H281   1.407       .  S
C285        C286   1.402       .  A
C285        C290   1.412       .  A
C286        C287   1.400       .  A
C286        H295   1.084       .  S
C287        C288   1.415       .  A
C287        S291   1.802       .  S
C288        C289   1.404       .  A
C289        C290   1.399       .  A
C289        H296   1.084       .  S
C290        S292   1.804       .  S
S291        H294   1.405       .  S
S292        H885   1.407       .  S
H293        S884   1.407       .  S
In297       O299   2.230       .  S
In297       O308   2.235       .  S
In297       O302   2.246       .  S
In297       O304   2.251       .  S
C298        O304   1.264       .  A
O300        C307   1.264       .  A
C301        O308   1.262       .  A
C301        O302   1.263       .  A
C301        C436   1.480       .  S
C303        O305   1.264       .  A
C303        O309   1.261       .  A
C303        C424   1.480       .  S
C307        C412   1.483       .  S
In310       O312   2.230   1_545  S
In310       O313   2.249   1_545  S
In310       O321   2.225   1_545  S
In310       O318   2.248   1_545  S
C311        O317   1.263       .  A
C311        O319   1.260       .  A
C311        C385   1.473       .  S
O312        C320   1.261       .  A
O313        C320   1.264       .  A
C314        O321   1.260   1_545  A
C314        C397   1.470       .  S
C316        O318   1.264       .  A
C316        C409   1.484       .  S
C320        C373   1.480       .  S
In323       O325   2.242       .  S
In323       O474   2.253       .  S
In323       O334   2.233       .  S
In323       O920   2.271       .  S
In323       O922   2.243       .  S
In323       O479   2.244       .  S
In323      O1072   2.241       .  S
In323      O1075   2.238       .  S
C324        O478   1.263   1_554  A
C324        O332   1.261       .  A
C324        C421   1.478       .  S
O325        C333   1.259       .  A
O326       In471   2.255       .  S
O326        C481   1.261       .  A
C327        O334   1.258       .  A
C327        O920   1.261       .  A
C327        C361   1.480       .  S
O328       In915   2.273   1_455  S
O328        C919   1.261       .  A
C329        O331   1.261       .  A
C329        O927   1.262       .  A
C329        C352   1.484       .  S
O330       In915   2.245   1_455  S
O330        C472   1.264       .  A
O331       In471   2.244   1_554  S
O332      In1063   2.240   1_454  S
C333        O474   1.261       .  A
C333        C376   1.475       .  S
O335      In1063   2.238   1_454  S
O335        C921   1.262   1_455  A
In336       O930   2.227       .  S
In336       O339   2.267       .  S
In336       O939   2.235       .  S
In336       O933   2.243       .  S
In336       O935   2.263       .  S
In336       O344   2.247       .  S
In336       O345   2.229       .  S
In336       O348   2.232       .  S
C337        O935   1.261       .  A
C337        O345   1.260       .  A
C337        C364   1.489       .  S
O338       In928   2.226   1_455  S
O338        C938   1.257   1_455  A
O339        C346   1.261       .  A
C340        O347   1.261       .  A
C340        O341   1.264       .  A
C340        C433   1.475       .  S
O341       In928   2.246   1_455  S
C342        O344   1.263       .  A
C342        O348   1.261       .  A
C342        C388   1.482       .  S
O343       In928   2.260   1_455  S
O343        C929   1.262       .  A
C346        O930   1.257       .  A
C346        C349   1.477       .  S
O347       In928   2.237   1_455  S
C349        C350   1.402       .  A
C349        C946   1.412       .  A
C350        C351   1.402       .  A
C350        H359   1.084       .  S
C351        C352   1.418       .  A
C351        S355   1.801       .  S
C352        C945   1.405       .  A
C353        C944   1.405   1_455  A
C353        C354   1.397       .  A
C353        H360   1.084       .  S
C354        C941   1.411   1_455  A
C354        S356   1.804       .  S
S355        H358   1.408       .  S
S356        H357   1.408       .  S
C361        C954   1.405       .  A
C361        C366   1.411       .  A
C362        C953   1.405       .  A
C362        C363   1.406       .  A
C362        H371   1.082       .  S
C363        C956   1.418       .  A
C363        S367   1.801       .  S
C364        C955   1.418       .  A
C364        C365   1.406       .  A
C365        C366   1.396       .  A
C365        H372   1.082       .  S
C366        S368   1.805       .  S
S367        H370   1.408       .  S
S368        H369   1.407       .  S
C373        C374   1.405       .  A
C373        C378   1.415       .  A
C374        C375   1.399       .  A
C374        H383   1.084       .  S
C375        C376   1.412       .  A
C375        S379   1.804       .  S
C376        C377   1.403       .  A
C377        C378   1.400       .  A
C377        H384   1.084       .  S
C378        S380   1.802       .  S
S379        H382   1.407       .  S
S380        H381   1.407       .  S
C385        C386   1.402       .  A
C385        C390   1.410       .  A
C386        C387   1.398       .  A
C386        H395   1.084       .  S
C387        C388   1.416       .  A
C387        S391   1.801       .  S
C388        C389   1.407       .  A
C389        C390   1.398       .  A
C389        H396   1.084       .  S
C390        S392   1.803       .  S
S391        H394   1.408       .  S
S392        H393   1.407       .  S
C397        C398   1.399   1_545  A
C398        C547   1.396       .  A
C398        H407   1.085       .  S
C399        C546   1.396       .  A
C399        C400   1.417   1_565  A
C399        S403   1.802       .  S
C401        C550   1.401   1_554  A
C401        H408   1.084       .  S
C402        C549   1.401       .  A
C402        S404   1.803       .  S
S403        H406   1.408       .  S
S404        H405   1.406       .  S
C409        C414   1.414       .  A
C410        C411   1.401       .  A
C410        H419   1.083       .  S
C411        S415   1.810       .  S
C412        C413   1.404       .  A
C413        C414   1.400       .  A
C413        H420   1.084       .  S
C414        S416   1.801       .  S
S415        H418   1.407       .  S
S416        H417   1.408       .  S
C421        C422   1.402       .  A
C421        C426   1.415       .  A
C422        C423   1.399       .  A
C422        H579   1.085   1_554  S
C423        C424   1.416       .  A
C423        S427   1.803       .  S
C424        C425   1.404       .  A
C425        C426   1.401       .  A
C425        H432   1.084       .  S
C426        S428   1.803       .  S
S427        H430   1.408       .  S
S428        H429   1.407       .  S
H431        C570   1.084       .  S
C433        C434   1.402       .  A
C433        C438   1.412       .  A
C434        C435   1.401       .  A
C434        H443   1.084       .  S
C435        C436   1.415       .  A
C435        S439   1.802       .  S
C436        C437   1.405       .  A
C437        C438   1.399       .  A
C437        H444   1.084       .  S
C438        S440   1.804       .  S
S439        H442   1.405       .  S
S440       H1033   1.407       .  S
H441       S1032   1.407       .  S
In445       O447   2.233       .  S
In445       O456   2.236       .  S
In445       O450   2.245       .  S
In445       O452   2.255       .  S
C446        O452   1.264       .  A
O448        C455   1.264       .  A
C449        O456   1.262       .  A
C449        O450   1.263       .  A
C449        C584   1.479       .  S
C451        O453   1.264       .  A
C451        O457   1.261       .  A
C451        C572   1.482       .  S
C455        C560   1.485       .  S
In458       O460   2.230   1_545  S
In458       O461   2.249   1_545  S
In458       O469   2.224   1_545  S
In458       O466   2.245   1_545  S
C459        O465   1.264       .  A
C459        O467   1.260       .  A
C459        C533   1.473       .  S
O460        C468   1.261       .  A
O461        C468   1.264       .  A
C462        O469   1.260   1_545  A
C462        C545   1.471       .  S
C464        O466   1.264       .  A
C464        C557   1.485       .  S
C468        C521   1.480       .  S
In471       O473   2.243       .  S
In471       O482   2.235       .  S
In471      O1068   2.274       .  S
In471      O1070   2.245       .  S
In471       O924   2.242   1_556  S
In471       O927   2.238   1_556  S
C472        O480   1.261       .  A
C472        C569   1.479       .  S
O473        C481   1.259       .  A
C475        O482   1.258       .  A
C475       O1068   1.261       .  A
C475        C509   1.481       .  S
O476      In1063   2.272   1_455  S
O476       C1067   1.261       .  A
C477        O479   1.261       .  A
C477       O1075   1.262       .  A
C477        C500   1.484       .  S
O478      In1063   2.243   1_455  S
O480       In915   2.241   1_455  S
C481        C524   1.477       .  S
O483       In915   2.239   1_455  S
O483       C1069   1.262   1_455  A
In484      O1078   2.227       .  S
In484       O487   2.267       .  S
In484      O1087   2.237       .  S
In484      O1081   2.246       .  S
In484      O1083   2.261       .  S
In484       O492   2.246       .  S
In484       O493   2.229       .  S
In484       O496   2.234       .  S
C485       O1083   1.262       .  A
C485        O493   1.260       .  A
C485        C512   1.489       .  S
O486      In1076   2.227   1_455  S
O486       C1086   1.257   1_455  A
O487        C494   1.261       .  A
C488        O495   1.261       .  A
C488        O489   1.264       .  A
C488        C581   1.474       .  S
O489      In1076   2.243   1_455  S
C490        O492   1.263       .  A
C490        O496   1.261       .  A
C490        C536   1.482       .  S
O491      In1076   2.264   1_455  S
O491       C1077   1.261       .  A
C494       O1078   1.257       .  A
C494        C497   1.476       .  S
O495      In1076   2.235   1_455  S
C497        C498   1.402       .  A
C497       C1094   1.411       .  A
C498        C499   1.403       .  A
C498        H507   1.084       .  S
C499        C500   1.418       .  A
C499        S503   1.801       .  S
C500       C1093   1.405       .  A
C501       C1092   1.405   1_455  A
C501        C502   1.397       .  A
C501        H508   1.084       .  S
C502       C1089   1.412   1_455  A
C502        S504   1.804       .  S
S503        H506   1.408       .  S
S504        H505   1.408       .  S
C509       C1102   1.405       .  A
C509        C514   1.412       .  A
C510       C1101   1.405       .  A
C510        C511   1.406       .  A
C510        H519   1.082       .  S
C511       C1104   1.418       .  A
C511        S515   1.801       .  S
C512       C1103   1.418       .  A
C512        C513   1.406       .  A
C513        C514   1.396       .  A
C513        H520   1.083       .  S
C514        S516   1.804       .  S
S515        H518   1.408       .  S
S516        H517   1.407       .  S
C521        C522   1.405       .  A
C521        C526   1.415       .  A
C522        C523   1.399       .  A
C522        H531   1.084       .  S
C523        C524   1.412       .  A
C523        S527   1.804       .  S
C524        C525   1.403       .  A
C525        C526   1.401       .  A
C525        H532   1.084       .  S
C526        S528   1.802       .  S
S527        H530   1.407   1_556  S
S528        H529   1.407       .  S
C533        C534   1.402       .  A
C533        C538   1.411       .  A
C534        C535   1.398       .  A
C534        H543   1.084       .  S
C535        C536   1.416       .  A
C535        S539   1.801       .  S
C536        C537   1.407       .  A
C537        C538   1.399       .  A
C537        H544   1.084       .  S
C538        S540   1.803       .  S
S539        H542   1.408       .  S
S540        H541   1.408       .  S
C545        C546   1.400   1_546  A
C546        H555   1.085       .  S
C547        C548   1.417   1_565  A
C547        S551   1.803       .  S
C549        H556   1.084       .  S
C550        S552   1.803       .  S
S551        H554   1.408       .  S
S552        H553   1.406       .  S
C557        C562   1.415       .  A
C558        C559   1.402       .  A
C558        H567   1.083       .  S
C559        S563   1.809       .  S
C560        C561   1.404       .  A
C561        C562   1.401       .  A
C561        H568   1.084       .  S
C562        S564   1.801       .  S
S563        H566   1.407       .  S
S564        H565   1.408       .  S
C569        C570   1.402       .  A
C569        C574   1.415       .  A
C570        C571   1.399       .  A
C571        C572   1.416       .  A
C571        S575   1.803       .  S
C572        C573   1.404       .  A
C573        C574   1.401       .  A
C573        H580   1.084       .  S
C574        S576   1.803       .  S
S575        H578   1.407       .  S
S576        H577   1.407       .  S
C581        C582   1.402       .  A
C581        C586   1.412       .  A
C582        C583   1.400       .  A
C582        H591   1.084       .  S
C583        C584   1.415       .  A
C583        S587   1.802       .  S
C584        C585   1.404       .  A
C585        C586   1.399       .  A
C585        H592   1.084       .  S
C586        S588   1.804       .  S
S587        H590   1.405       .  S
S588       H1181   1.407       .  S
H589       S1180   1.407       .  S
In593       O595   2.234   1_565  S
In593       O892   2.259       .  S
In593       O604   2.235   1_565  S
In593       O598   2.246   1_565  S
In593       O600   2.255   1_565  S
In593       O897   2.253       .  S
In593       O898   2.224       .  S
In593       O901   2.237       .  S
C594        O600   1.264       .  A
C594        O898   1.259   1_545  A
C594        C992   1.482       .  S
O595        C899   1.259   1_545  A
O596       In889   2.259       .  S
O596        C603   1.264       .  A
C597        O604   1.262       .  A
C597        O598   1.263       .  A
C597        C732   1.479       .  S
C599        O601   1.264       .  A
C599        O605   1.261       .  A
C599        C720   1.482       .  S
O601       In889   2.253       .  S
O602       In889   2.224       .  S
O602        C890   1.259       .  A
C603        O891   1.259       .  A
C603        C708   1.486       .  S
O605       In889   2.238       .  S
In606       O608   2.231       .  S
In606       O609   2.249       .  S
In606       O617   2.224       .  S
In606       O907   2.250       .  S
In606       O909   2.248       .  S
In606       O614   2.246       .  S
In606       O911   2.223       .  S
In606       O914   2.230       .  S
C607        O613   1.264       .  A
C607        O615   1.260       .  A
C607        C681   1.473       .  S
O608        C616   1.261       .  A
O609        C616   1.264       .  A
C610        O617   1.260       .  A
C610        O907   1.264       .  A
C610        C693   1.472       .  S
O611       In902   2.249       .  S
O611        C906   1.264       .  A
C612        O614   1.264       .  A
C612        O914   1.261       .  A
C612        C705   1.485       .  S
O613       In902   2.247       .  S
O615       In902   2.223       .  S
C616        C669   1.480       .  S
O618       In902   2.230       .  S
O618        C908   1.261   1_545  A
In619       O621   2.244       .  S
In619       O770   2.255       .  S
In619       O630   2.234       .  S
In619       O775   2.245       .  S
C620        O774   1.264   1_554  A
C620        O628   1.261       .  A
C620        C717   1.479       .  S
O621        C629   1.259       .  A
O622       In767   2.253       .  S
O622        C777   1.261       .  A
C623        O630   1.258   1_455  A
C623        C657   1.480       .  S
C625        O627   1.261       .  A
C625        C648   1.484       .  S
O626        C768   1.263       .  A
O627       In767   2.244   1_554  S
C629        O770   1.261       .  A
C629        C672   1.477       .  S
In632       O635   2.267       .  S
In632       O640   2.246       .  S
In632       O641   2.230       .  S
In632       O644   2.234       .  S
C633        O641   1.260   1_455  A
C633        C660   1.489       .  S
O635        C642   1.261       .  A
C636        O643   1.262       .  A
C636        O637   1.264       .  A
C636        C729   1.474       .  S
C638        O640   1.263       .  A
C638        O644   1.261       .  A
C638        C684   1.482       .  S
C642        C645   1.476       .  S
C645        C646   1.402       .  A
C646        C647   1.403       .  A
C646        H655   1.084       .  S
C647        C648   1.418       .  A
C647        S651   1.801       .  S
C649        C650   1.397       .  A
C649        H656   1.084       .  S
C650        S652   1.804       .  S
S651        H654   1.408       .  S
S652        H653   1.408       .  S
C657        C662   1.412   1_455  A
C658        C659   1.406       .  A
C658        H667   1.082       .  S
C659        S663   1.801       .  S
C660        C661   1.406   1_455  A
C661        C662   1.396       .  A
C661        H668   1.083       .  S
C662        S664   1.805       .  S
S663        H666   1.408       .  S
S664        H665   1.407       .  S
C669        C670   1.405       .  A
C669        C674   1.415       .  A
C670        C671   1.399       .  A
C670        H679   1.084       .  S
C671        C672   1.413       .  A
C671        S675   1.804       .  S
C672        C673   1.403       .  A
C673        C674   1.401       .  A
C673        H680   1.084       .  S
C674        S676   1.802       .  S
S675        H678   1.407       .  S
S676        H677   1.407       .  S
C681        C682   1.402       .  A
C681        C686   1.410       .  A
C682        C683   1.398       .  A
C682        H691   1.084       .  S
C683        C684   1.416       .  A
C683        S687   1.801       .  S
C684        C685   1.407       .  A
C685        C686   1.399       .  A
C685        H692   1.084       .  S
C686        S688   1.803       .  S
S687        H690   1.408       .  S
S688        H689   1.408       .  S
C693        C694   1.400       .  A
C693        C994   1.412       .  A
C694        C843   1.396       .  A
C694        H703   1.085       .  S
C695        C842   1.396       .  A
C695        C696   1.417       .  A
C695        S699   1.803       .  S
C696        C890   1.482       .  S
C696        C993   1.406       .  A
C697        C992   1.406       .  A
C697        C846   1.401   1_554  A
C697        H704   1.084       .  S
C698        C989   1.412       .  A
C698        C845   1.401       .  A
C698        S700   1.803       .  S
S699        H702   1.408       .  S
S700        H701   1.406       .  S
C705       C1002   1.405       .  A
C705        C710   1.415       .  A
C706       C1001   1.405   1_545  A
C706        C707   1.402       .  A
C706        H715   1.083       .  S
C707       C1004   1.416   1_545  A
C707        S711   1.809       .  S
C708       C1003   1.416       .  A
C708        C709   1.405       .  A
C709        C710   1.401       .  A
C709        H716   1.084       .  S
C710        S712   1.801       .  S
S711        H714   1.407       .  S
S712        H713   1.408       .  S
C717        C718   1.402       .  A
C717        C722   1.415       .  A
C718        C719   1.399       .  A
C718        H875   1.084   1_554  S
C719        C720   1.416       .  A
C719        S723   1.803       .  S
C720        C721   1.404       .  A
C721        C722   1.401       .  A
C721        H728   1.084       .  S
C722        S724   1.803       .  S
S723        H726   1.407       .  S
S724        H725   1.407       .  S
H727        C866   1.085       .  S
C729        C730   1.402       .  A
C729        C734   1.412       .  A
C730        C731   1.400       .  A
C730        H739   1.084       .  S
C731        C732   1.415       .  A
C731        S735   1.802       .  S
C732        C733   1.404       .  A
C733        C734   1.399       .  A
C733        H740   1.084       .  S
C734        S736   1.804       .  S
S735        H738   1.405       .  S
In741       O743   2.231   1_565  S
In741      O1040   2.257       .  S
In741       O752   2.234   1_565  S
In741       O746   2.246   1_565  S
In741       O748   2.250   1_565  S
In741      O1045   2.251       .  S
In741      O1046   2.228       .  S
In741      O1049   2.233       .  S
C742        O748   1.264       .  A
C742       O1046   1.259   1_545  A
C742       C1140   1.483       .  S
O743       C1047   1.258   1_545  A
O744      In1037   2.256       .  S
O744        C751   1.264       .  A
C745        O752   1.262       .  A
C745        O746   1.263       .  A
C745        C880   1.479       .  S
C747        O749   1.264       .  A
C747        O753   1.261       .  A
C747        C868   1.481       .  S
O749      In1037   2.251       .  S
O750      In1037   2.228       .  S
O750       C1038   1.259       .  A
C751       O1039   1.258       .  A
C751        C856   1.483       .  S
O753      In1037   2.233       .  S
In754       O756   2.230       .  S
In754       O757   2.249       .  S
In754       O765   2.225       .  S
In754      O1055   2.249       .  S
In754      O1057   2.245       .  S
In754       O762   2.248       .  S
In754      O1059   2.227       .  S
In754      O1062   2.225       .  S
C755        O761   1.263       .  A
C755        O763   1.260       .  A
C755        C829   1.472       .  S
O756        C764   1.261       .  A
O757        C764   1.264       .  A
C758        O765   1.260       .  A
C758       O1055   1.263       .  A
C758        C841   1.470       .  S
O759      In1050   2.249       .  S
O759       C1054   1.263       .  A
C760        O762   1.264       .  A
C760       O1062   1.261       .  A
C760        C853   1.484       .  S
O761      In1050   2.245       .  S
O763      In1050   2.227       .  S
C764        C817   1.480       .  S
O766      In1050   2.225       .  S
O766       C1056   1.261   1_545  A
In767       O769   2.241       .  S
In767       O778   2.232       .  S
C768        O776   1.261       .  A
C768        C865   1.478       .  S
O769        C777   1.259       .  A
C771        O778   1.258   1_455  A
C771        C805   1.480       .  S
C773        O775   1.261       .  A
C773        C796   1.485       .  S
C777        C820   1.475       .  S
In780       O783   2.268       .  S
In780       O788   2.246       .  S
In780       O789   2.230       .  S
In780       O792   2.232       .  S
C781        O789   1.260   1_455  A
C781        C808   1.489       .  S
O783        C790   1.261       .  A
C784        O791   1.261       .  A
C784        O785   1.263       .  A
C784        C877   1.474       .  S
C786        O788   1.263       .  A
C786        O792   1.261       .  A
C786        C832   1.482       .  S
C790        C793   1.477       .  S
C793        C794   1.402       .  A
C794        C795   1.403       .  A
C794        H803   1.084       .  S
C795        C796   1.418       .  A
C795        S799   1.801       .  S
C797        C798   1.397       .  A
C797        H804   1.084       .  S
C798        S800   1.804       .  S
S799        H802   1.408       .  S
S800        H801   1.408       .  S
C805        C810   1.411   1_455  A
C806        C807   1.406       .  A
C806        H815   1.082       .  S
C807        S811   1.801       .  S
C808        C809   1.406   1_455  A
C809        C810   1.396       .  A
C809        H816   1.083       .  S
C810        S812   1.805       .  S
S811        H814   1.408       .  S
S812        H813   1.407       .  S
C817        C818   1.405       .  A
C817        C822   1.415       .  A
C818        C819   1.399       .  A
C818        H827   1.084       .  S
C819        C820   1.412       .  A
C819        S823   1.804       .  S
C820        C821   1.403       .  A
C821        C822   1.400       .  A
C821        H828   1.084       .  S
C822        S824   1.802       .  S
S823        H826   1.407   1_556  S
S824        H825   1.407       .  S
C829        C830   1.402       .  A
C829        C834   1.410       .  A
C830        C831   1.398       .  A
C830        H839   1.084       .  S
C831        C832   1.416       .  A
C831        S835   1.801       .  S
C832        C833   1.407       .  A
C833        C834   1.398       .  A
C833        H840   1.084       .  S
C834        S836   1.803       .  S
S835        H838   1.408       .  S
S836        H837   1.407       .  S
C841        C842   1.399   1_556  A
C841       C1142   1.411       .  A
C842        H851   1.085       .  S
C843        C844   1.417       .  A
C843        S847   1.802       .  S
C844       C1038   1.483       .  S
C844       C1141   1.406       .  A
C845       C1140   1.406       .  A
C845        H852   1.084       .  S
C846       C1137   1.411       .  A
C846        S848   1.803       .  S
S847        H850   1.408       .  S
S848        H849   1.406       .  S
C853       C1150   1.405       .  A
C853        C858   1.414       .  A
C854       C1149   1.405   1_545  A
C854        C855   1.401       .  A
C854        H863   1.083       .  S
C855       C1152   1.416   1_545  A
C855        S859   1.809       .  S
C856       C1151   1.416       .  A
C856        C857   1.404       .  A
C857        C858   1.400       .  A
C857        H864   1.084       .  S
C858        S860   1.801       .  S
S859        H862   1.407       .  S
S860        H861   1.408       .  S
C865        C866   1.402       .  A
C865        C870   1.415       .  A
C866        C867   1.399       .  A
C867        C868   1.416       .  A
C867        S871   1.803       .  S
C868        C869   1.404       .  A
C869        C870   1.401       .  A
C869        H876   1.084       .  S
C870        S872   1.803       .  S
S871        H874   1.408       .  S
S872        H873   1.407       .  S
C877        C878   1.403       .  A
C877        C882   1.412       .  A
C878        C879   1.401       .  A
C878        H887   1.084       .  S
C879        C880   1.415       .  A
C879        S883   1.802       .  S
C880        C881   1.404       .  A
C881        C882   1.399       .  A
C881        H888   1.084       .  S
C882        S884   1.804       .  S
S883        H886   1.405       .  S
In889       O891   2.234       .  S
In889       O900   2.235       .  S
In889       O894   2.246       .  S
In889       O896   2.255       .  S
C890        O896   1.264       .  A
O892        C899   1.264       .  A
C893        O900   1.262       .  A
C893        O894   1.263       .  A
C893       C1028   1.479       .  S
C895        O897   1.264       .  A
C895        O901   1.261       .  A
C895       C1016   1.482       .  S
C899       C1004   1.486       .  S
In902       O904   2.231   1_545  S
In902       O905   2.249   1_545  S
In902       O913   2.223   1_545  S
In902       O910   2.246   1_545  S
C903        O909   1.264       .  A
C903        O911   1.260       .  A
C903        C977   1.473       .  S
O904        C912   1.261       .  A
O905        C912   1.265       .  A
C906        O913   1.260   1_545  A
C906        C989   1.472       .  S
C908        O910   1.264       .  A
C908       C1001   1.485       .  S
C912        C965   1.480       .  S
In915       O917   2.244       .  S
In915      O1066   2.255       .  S
In915       O926   2.234       .  S
In915      O1071   2.245       .  S
C916       O1070   1.264   1_554  A
C916        O924   1.261       .  A
C916       C1013   1.479       .  S
O917        C925   1.259       .  A
O918      In1063   2.253       .  S
O918       C1073   1.261       .  A
C919        O926   1.258   1_455  A
C919        C953   1.480       .  S
C921        O923   1.261       .  A
C921        C944   1.484       .  S
O922       C1064   1.263       .  A
O923      In1063   2.244   1_554  S
C925       O1066   1.261       .  A
C925        C968   1.477       .  S
In928       O931   2.267       .  S
In928       O936   2.246       .  S
In928       O937   2.230       .  S
In928       O940   2.234       .  S
C929        O937   1.260   1_455  A
C929        C956   1.489       .  S
O931        C938   1.261       .  A
C932        O939   1.262       .  A
C932        O933   1.264       .  A
C932       C1025   1.474       .  S
C934        O936   1.263       .  A
C934        O940   1.261       .  A
C934        C980   1.482       .  S
C938        C941   1.476       .  S
C941        C942   1.402       .  A
C942        C943   1.403       .  A
C942        H951   1.084       .  S
C943        C944   1.418       .  A
C943        S947   1.801       .  S
C945        C946   1.397       .  A
C945        H952   1.084       .  S
C946        S948   1.804       .  S
S947        H950   1.408       .  S
S948        H949   1.408       .  S
C953        C958   1.412   1_455  A
C954        C955   1.406       .  A
C954        H963   1.082       .  S
C955        S959   1.801       .  S
C956        C957   1.406   1_455  A
C957        C958   1.396       .  A
C957        H964   1.083       .  S
C958        S960   1.805       .  S
S959        H962   1.408       .  S
S960        H961   1.407       .  S
C965        C966   1.405       .  A
C965        C970   1.415       .  A
C966        C967   1.399       .  A
C966        H975   1.084       .  S
C967        C968   1.413       .  A
C967        S971   1.804       .  S
C968        C969   1.403       .  A
C969        C970   1.401       .  A
C969        H976   1.084       .  S
C970        S972   1.802       .  S
S971        H974   1.407       .  S
S972        H973   1.407       .  S
C977        C978   1.402       .  A
C977        C982   1.410       .  A
C978        C979   1.398       .  A
C978        H987   1.084       .  S
C979        C980   1.416       .  A
C979        S983   1.801       .  S
C980        C981   1.407       .  A
C981        C982   1.399       .  A
C981        H988   1.084       .  S
C982        S984   1.803       .  S
S983        H986   1.408       .  S
S984        H985   1.408       .  S
C989        C990   1.400   1_545  A
C990       C1139   1.396       .  A
C990        H999   1.085       .  S
C991       C1138   1.396       .  A
C991        C992   1.417   1_565  A
C991        S995   1.803       .  S
C993       C1142   1.401   1_554  A
C993       H1000   1.084       .  S
C994       C1141   1.401       .  A
C994        S996   1.803       .  S
S995        H998   1.408       .  S
S996        H997   1.406       .  S
C1001      C1006   1.415       .  A
C1002      C1003   1.402       .  A
C1002      H1011   1.083       .  S
C1003      S1007   1.809       .  S
C1004      C1005   1.404       .  A
C1005      C1006   1.401       .  A
C1005      H1012   1.084       .  S
C1006      S1008   1.801       .  S
S1007      H1010   1.407       .  S
S1008      H1009   1.408       .  S
C1013      C1014   1.402       .  A
C1013      C1018   1.415       .  A
C1014      C1015   1.399       .  A
C1014      H1171   1.084   1_554  S
C1015      C1016   1.416       .  A
C1015      S1019   1.803       .  S
C1016      C1017   1.404       .  A
C1017      C1018   1.401       .  A
C1017      H1024   1.084       .  S
C1018      S1020   1.803       .  S
S1019      H1022   1.407       .  S
S1020      H1021   1.407       .  S
H1023      C1162   1.085       .  S
C1025      C1026   1.402       .  A
C1025      C1030   1.412       .  A
C1026      C1027   1.400       .  A
C1026      H1035   1.084       .  S
C1027      C1028   1.415       .  A
C1027      S1031   1.802       .  S
C1028      C1029   1.404       .  A
C1029      C1030   1.399       .  A
C1029      H1036   1.084       .  S
C1030      S1032   1.804       .  S
S1031      H1034   1.405       .  S
In1037     O1039   2.231       .  S
In1037     O1048   2.234       .  S
In1037     O1042   2.246       .  S
In1037     O1044   2.250       .  S
C1038      O1044   1.264       .  A
O1040      C1047   1.264       .  A
C1041      O1048   1.262       .  A
C1041      O1042   1.263       .  A
C1041      C1176   1.479       .  S
C1043      O1045   1.264       .  A
C1043      O1049   1.261       .  A
C1043      C1164   1.481       .  S
C1047      C1152   1.483       .  S
In1050     O1052   2.230   1_545  S
In1050     O1053   2.249   1_545  S
In1050     O1061   2.225   1_545  S
In1050     O1058   2.248   1_545  S
C1051      O1057   1.263       .  A
C1051      O1059   1.260       .  A
C1051      C1125   1.472       .  S
O1052      C1060   1.261       .  A
O1053      C1060   1.265       .  A
C1054      O1061   1.260   1_545  A
C1054      C1137   1.470       .  S
C1056      O1058   1.264       .  A
C1056      C1149   1.484       .  S
C1060      C1113   1.480       .  S
In1063     O1065   2.242       .  S
In1063     O1074   2.232       .  S
C1064      O1072   1.261       .  A
C1064      C1161   1.478       .  S
O1065      C1073   1.259       .  A
C1067      O1074   1.258   1_455  A
C1067      C1101   1.480       .  S
C1069      O1071   1.261       .  A
C1069      C1092   1.485       .  S
C1073      C1116   1.475       .  S
In1076     O1079   2.268       .  S
In1076     O1084   2.247       .  S
In1076     O1085   2.230       .  S
In1076     O1088   2.231       .  S
C1077      O1085   1.260   1_455  A
C1077      C1104   1.489       .  S
O1079      C1086   1.261       .  A
C1080      O1087   1.261       .  A
C1080      O1081   1.263       .  A
C1080      C1173   1.474       .  S
C1082      O1084   1.263       .  A
C1082      O1088   1.261       .  A
C1082      C1128   1.482       .  S
C1086      C1089   1.477       .  S
C1089      C1090   1.402       .  A
C1090      C1091   1.402       .  A
C1090      H1099   1.084       .  S
C1091      C1092   1.418       .  A
C1091      S1095   1.801       .  S
C1093      C1094   1.396       .  A
C1093      H1100   1.084       .  S
C1094      S1096   1.804       .  S
S1095      H1098   1.408       .  S
S1096      H1097   1.408       .  S
C1101      C1106   1.411   1_455  A
C1102      C1103   1.406       .  A
C1102      H1111   1.082       .  S
C1103      S1107   1.801       .  S
C1104      C1105   1.406   1_455  A
C1105      C1106   1.396       .  A
C1105      H1112   1.082       .  S
C1106      S1108   1.805       .  S
S1107      H1110   1.408       .  S
S1108      H1109   1.407       .  S
C1113      C1114   1.405       .  A
C1113      C1118   1.415       .  A
C1114      C1115   1.399       .  A
C1114      H1123   1.084       .  S
C1115      C1116   1.412       .  A
C1115      S1119   1.804       .  S
C1116      C1117   1.403       .  A
C1117      C1118   1.400       .  A
C1117      H1124   1.084       .  S
C1118      S1120   1.802       .  S
S1119      H1122   1.407   1_556  S
S1120      H1121   1.407       .  S
C1125      C1126   1.402       .  A
C1125      C1130   1.410       .  A
C1126      C1127   1.398       .  A
C1126      H1135   1.084       .  S
C1127      C1128   1.416       .  A
C1127      S1131   1.801       .  S
C1128      C1129   1.407       .  A
C1129      C1130   1.398       .  A
C1129      H1136   1.084       .  S
C1130      S1132   1.803       .  S
S1131      H1134   1.408       .  S
S1132      H1133   1.407       .  S
C1137      C1138   1.399   1_546  A
C1138      H1147   1.085       .  S
C1139      C1140   1.417   1_565  A
C1139      S1143   1.802       .  S
C1141      H1148   1.084       .  S
C1142      S1144   1.803       .  S
S1143      H1146   1.408       .  S
S1144      H1145   1.406       .  S
C1149      C1154   1.415       .  A
C1150      C1151   1.401       .  A
C1150      H1159   1.083       .  S
C1151      S1155   1.809       .  S
C1152      C1153   1.404       .  A
C1153      C1154   1.400       .  A
C1153      H1160   1.084       .  S
C1154      S1156   1.801       .  S
S1155      H1158   1.407       .  S
S1156      H1157   1.408       .  S
C1161      C1162   1.402       .  A
C1161      C1166   1.415       .  A
C1162      C1163   1.399       .  A
C1163      C1164   1.416       .  A
C1163      S1167   1.803       .  S
C1164      C1165   1.404       .  A
C1165      C1166   1.401       .  A
C1165      H1172   1.084       .  S
C1166      S1168   1.803       .  S
S1167      H1170   1.408       .  S
S1168      H1169   1.407       .  S
C1173      C1174   1.402       .  A
C1173      C1178   1.412       .  A
C1174      C1175   1.401       .  A
C1174      H1183   1.084       .  S
C1175      C1176   1.415       .  A
C1175      S1179   1.802       .  S
C1176      C1177   1.404       .  A
C1177      C1178   1.399       .  A
C1177      H1184   1.084       .  S
C1178      S1180   1.804       .  S
S1179      H1182   1.405       .  S
