geometry optimzed in LAMMPS
_audit_creation_date              2020-11-30 
_audit_creation_method            'lammps2cif' 
_symmetry_space_group_name_H-M    'P1' 
_symmetry_Int_Tables_number       1 
_symmetry_cell_setting            triclinic 
loop_ 
_symmetry_equiv_pos_as_xyz 
  x,y,z 
_cell_length_a                    30.278048119157024 
_cell_length_b                    30.88054689339493 
_cell_length_c                    33.15707904525239 
_cell_angle_alpha                 91.03601100896033 
_cell_angle_beta                  89.46371261507527 
_cell_angle_gamma                 90.25696540881128 
loop_ 
_atom_site_label 
_atom_site_type_symbol 
_atom_site_fract_x 
_atom_site_fract_y 
_atom_site_fract_z 
_atom_site_charge 
In1        In  0.75170662  0.88427279  0.50245686     1.36870
C2          C  0.75862269  0.85039717  0.57509594     0.78020
O3          O  0.82539726  0.88520123  0.50287066    -0.60430
O4          O  0.79147732  0.94550399  0.50338262    -0.51340
C5          C  0.74561129  0.84127576  0.43215453     0.70680
O6          O  0.72179394  0.83218481  0.46216136    -0.46200
C7          C  0.67706464  0.92923810  0.50164826     0.75390
O8          O  0.76030247  0.82701528  0.54349894    -0.58060
O9          O  0.71382714  0.94526484  0.49150450    -0.48150
O10         O  0.75220016  0.88990639  0.56906700    -0.54490
C11         C  0.82813288  0.92608337  0.50343045     0.85570
O12         O  0.77339542  0.87094155  0.43861670    -0.56380
O13         O  0.67888664  0.89011927  0.51140368    -0.59670
C14         C  0.74894771  0.80444579  0.74166922     0.01000
C15         C  0.76143429  0.77004580  0.76422081     0.01000
C16         C  0.71390337  0.78424367  0.23692528     0.01000
C17         C  0.72891394  0.81553950  0.26324789     0.01000
In18       In  0.74813212  0.69022584  0.00328066     1.36870
C19         C  0.75280511  0.73209430  0.93342387     0.78020
O20         O  0.82154708  0.68197758  0.00633848    -0.60430
O21         O  0.78059274  0.62642574  0.01285423    -0.51340
C22         C  0.74630510  0.73274596  0.07391388     0.70680
O23         O  0.74872236  0.75220882  0.04093080    -0.46200
C24         C  0.67684516  0.64238647  0.98972532     0.75390
O25         O  0.71866431  0.73189637  0.95525628    -0.58060
O26         O  0.71516909  0.62950352  0.98076707    -0.48150
O27         O  0.78481301  0.71216458  0.94830809    -0.54490
C28         C  0.81935399  0.64149116  0.01113087     0.85570
O29         O  0.74368355  0.69224263  0.07057868    -0.56380
O30         O  0.67498249  0.67976010  0.00558351    -0.59670
C31         C  0.74229150  0.29593333  0.26581122     0.01000
C32         C  0.76441354  0.26966720  0.23877398     0.01000
C33         C  0.74306527  0.30719624  0.73920307     0.01000
C34         C  0.72497117  0.27595314  0.76292491     0.01000
In35       In  0.74369074  0.39094564  0.49984178     1.36870
C36         C  0.74810522  0.34545707  0.43093622     0.78020
O37         O  0.67039981  0.39546035  0.48847646    -0.60430
O38         O  0.70275507  0.44984983  0.51412950    -0.51340
C39         C  0.74253769  0.35410644  0.57222454     0.70680
O40         O  0.75476838  0.33362201  0.54082395    -0.46200
C41         C  0.81916114  0.43513686  0.49470026     0.75390
O42         O  0.72918757  0.33086004  0.46199109    -0.58060
O43         O  0.78309633  0.44909500  0.48148998    -0.48150
O44         O  0.76317350  0.38327034  0.43502536    -0.54490
C45         C  0.66660105  0.43311212  0.50342134     0.85570
O46         O  0.73300002  0.39304715  0.56617034    -0.56380
O47         O  0.81625693  0.39866335  0.51120153    -0.59670
In48       In  0.74419420  0.18782698  0.99775566     1.36870
C49         C  0.74657342  0.22224219  0.07178110     0.78020
O50         O  0.67023327  0.19000198  0.00710190    -0.60430
O51         O  0.70010493  0.12993462  0.99268417    -0.51340
C52         C  0.74053646  0.22859068  0.92793193     0.70680
O53         O  0.74308370  0.24878854  0.96120622    -0.46200
C54         C  0.82023546  0.14454333  0.99109350     0.75390
O55         O  0.75175226  0.24492507  0.04081595    -0.58060
O56         O  0.78344208  0.12664549  0.99716613    -0.48150
O57         O  0.74266720  0.18224489  0.06467857    -0.54490
C58         C  0.66492688  0.14986125  0.00134927     0.85570
O59         O  0.73891535  0.18800765  0.93045464    -0.56380
O60         O  0.81834531  0.18526393  0.98964914    -0.59670
In61       In  0.89107118  0.53475370  0.74855000     1.36870
C62         C  0.93307026  0.54102072  0.81894677     0.78020
O63         O  0.88919894  0.60626544  0.73880550    -0.60430
O64         O  0.82852876  0.57253841  0.74655366    -0.51340
C65         C  0.92791723  0.53659630  0.67562938     0.70680
O66         O  0.95048757  0.54135414  0.70721763    -0.46200
C67         C  0.84627323  0.46095049  0.75843572     0.75390
O68         O  0.94491561  0.51470663  0.79149991    -0.58060
O69         O  0.82893055  0.49767686  0.76340028    -0.48150
O70         O  0.90103392  0.56443602  0.80967301    -0.54490
C71         C  0.84761075  0.60837167  0.74046044     0.85570
O72         O  0.88776336  0.52791198  0.68169734    -0.56380
O73         O  0.88633780  0.46231744  0.74778667    -0.59670
In74       In  0.10569081  0.53983890  0.24617906     1.36870
C75         C  0.06627941  0.54326233  0.17520132     0.78020
O76         O  0.11033913  0.61263736  0.24998482    -0.60430
O77         O  0.16797432  0.57694883  0.23523058    -0.51340
C78         C  0.06917193  0.53752792  0.31933944     0.70680
O79         O  0.04634539  0.54243200  0.28809009    -0.46200
C80         C  0.14181638  0.46157393  0.24622292     0.75390
O81         O  0.04454450  0.53875333  0.20757625    -0.58060
O82         O  0.16273600  0.49541222  0.25609044    -0.48150
O83         O  0.10752215  0.54479511  0.17946292    -0.54490
C84         C  0.15086837  0.61374760  0.24071279     0.85570
O85         O  0.11021442  0.53697512  0.31304819    -0.56380
O86         O  0.10244106  0.46791135  0.23595135    -0.59670
C87         C  0.97867150  0.54538279  0.98734353     0.01000
C88         C  0.01191440  0.52988978  0.01075279     0.01000
C89         C  0.01338668  0.54784388  0.48576835     0.01000
C90         C  0.98127225  0.52831565  0.50858348     0.01000
C91         C  0.48335121  0.53690584  0.99635246     0.01000
C92         C  0.51954338  0.54933740  0.01788760     0.01000
In93       In  0.39452008  0.53896250  0.75882028     1.36870
C94         C  0.43221371  0.54471688  0.83073496     0.78020
O95         O  0.39177219  0.61206209  0.75560087    -0.60430
O96         O  0.33230191  0.57666640  0.76397421    -0.51340
C97         C  0.42612600  0.53939680  0.68361864     0.70680
O98         O  0.45163108  0.53851627  0.71358491    -0.46200
C99         C  0.35595241  0.46122103  0.75341350     0.75390
O100        O  0.45493535  0.54385364  0.79860305    -0.58060
O101        O  0.33524337  0.49588061  0.76008253    -0.48150
O102        O  0.39133019  0.54025858  0.82571059    -0.54490
C103        C  0.35021264  0.61308263  0.75897387     0.85570
O104        O  0.38578927  0.54142085  0.69301177    -0.56380
O105        O  0.39738712  0.46592795  0.75204497    -0.59670
C106        C  0.47194653  0.54823541  0.51094611     0.01000
C107        C  0.50777294  0.53108234  0.49013676     0.01000
In108      In  0.61034175  0.53338371  0.25435103     1.36870
C109        C  0.57173710  0.53280272  0.32655275     0.78020
O110        O  0.61613952  0.46218594  0.24017807    -0.60430
O111        O  0.67351954  0.49630769  0.25777075    -0.51340
C112        C  0.57107814  0.53635432  0.18331404     0.70680
O113        O  0.55341809  0.51773178  0.21297734    -0.46200
C114        C  0.64488646  0.61239066  0.25974657     0.75390
O115        O  0.54971121  0.53333638  0.29448673    -0.58060
O116        O  0.66806726  0.57944978  0.25140731    -0.48150
O117        O  0.61278180  0.52969757  0.32132695    -0.54490
C118        C  0.65693586  0.46056888  0.24690045     0.85570
O119        O  0.60807863  0.55358499  0.19035364    -0.56380
O120        O  0.60422327  0.60457036  0.26447771    -0.59670
C121        C  0.26790738  0.29754764  0.76619291     0.01000
C122        C  0.26021249  0.26158177  0.74248906     0.01000
In123      In  0.25284765  0.18665745  0.49913412     1.36870
C124        C  0.25606010  0.22285108  0.57294761     0.78020
O125        O  0.17852168  0.18149767  0.50507490    -0.60430
O126        O  0.21545722  0.12538002  0.48954202    -0.51340
C127        C  0.24799874  0.22504998  0.42783048     0.70680
O128        O  0.26030935  0.24530266  0.45923092    -0.46200
C129        C  0.33047827  0.14561926  0.50156589     0.75390
O130        O  0.24790228  0.24505120  0.54232507    -0.58060
O131        O  0.29380854  0.12765440  0.50805123    -0.48150
O132        O  0.25912394  0.18293399  0.56548371    -0.54490
C133        C  0.17789829  0.14154486  0.49613375     0.85570
O134        O  0.23942552  0.18564625  0.43291395    -0.56380
O135        O  0.32748699  0.18475965  0.49164115    -0.59670
C136        C  0.23410692  0.29937071  0.23592296     0.01000
C137        C  0.24147788  0.26553404  0.26107226     0.01000
In138      In  0.25016045  0.39267382  0.00327359     1.36870
C139        C  0.25395916  0.35426750  0.07454254     0.78020
O140        O  0.32403761  0.39627219  0.99730387    -0.60430
O141        O  0.28967063  0.45323256  0.01416185    -0.51340
C142        C  0.25152442  0.35273938  0.93132653     0.70680
O143        O  0.25900836  0.33309248  0.96354760    -0.46200
C144        C  0.17229372  0.43236680  0.00016272     0.75390
O145        O  0.24762299  0.33321563  0.04213718    -0.58060
O146        O  0.20859701  0.45136271  0.99415276    -0.48150
O147        O  0.25532451  0.39469240  0.07047507    -0.54490
C148        C  0.32653308  0.43573841  0.00735217     0.85570
O149        O  0.24359638  0.39249927  0.93601536    -0.56380
O150        O  0.17602396  0.39278529  0.00832313    -0.59670
In151      In  0.60365327  0.03345152  0.75272151     1.36870
C152        C  0.55559212  0.03318460  0.82056698     0.78020
O153        O  0.61120975  0.96266591  0.73794024    -0.60430
O154        O  0.66110685  0.99379844  0.77235977    -0.51340
C155        C  0.56596006  0.03772481  0.68039596     0.70680
O156        O  0.54736252  0.01974777  0.70997815    -0.46200
C157        C  0.64814078  0.10777770  0.75312459     0.75390
O158        O  0.54242407  0.05071914  0.78883415    -0.58060
O159        O  0.66592349  0.07222420  0.74328548    -0.48150
O160        O  0.59290980  0.01577606  0.81744984    -0.54490
C161        C  0.64665079  0.95876172  0.75730340     0.85570
O162        O  0.60440181  0.05122467  0.68765422    -0.56380
O163        O  0.60845830  0.10475765  0.76459578    -0.59670
In164      In  0.39398508  0.03897138  0.25226691     1.36870
C165        C  0.42894668  0.03791142  0.32509899     0.78020
O166        O  0.39062673  0.11157219  0.24610010    -0.60430
O167        O  0.33149504  0.07637276  0.25575404    -0.51340
C168        C  0.42972106  0.04028588  0.17876755     0.70680
O169        O  0.45158081  0.05178637  0.20944452    -0.46200
C170        C  0.35273303  0.96294568  0.25800491     0.75390
O171        O  0.45145325  0.02819276  0.29394756    -0.58060
O172        O  0.33357811  0.99748207  0.24885631    -0.48150
O173        O  0.39082642  0.05170618  0.31803617    -0.54490
C174        C  0.34916394  0.11282518  0.25006161     0.85570
O175        O  0.39171703  0.02578216  0.18646632    -0.56380
O176        O  0.39385846  0.96709380  0.26275631    -0.59670
C177        C  0.50111825  0.05940395  0.98459224     0.01000
C178        C  0.46693770  0.04539576  0.00832458     0.01000
C179        C  0.48310197  0.03765694  0.49029000     0.01000
C180        C  0.51995096  0.03238003  0.51359943     0.01000
C181        C  0.26480585  0.76112112  0.25016462     0.01000
C182        C  0.27743738  0.79608718  0.22803627     0.01000
In183      In  0.24598284  0.69218494  0.49112540     1.36870
C184        C  0.24834427  0.73529127  0.56109000     0.78020
O185        O  0.17287252  0.68330622  0.48630342    -0.60430
O186        O  0.20946282  0.63346475  0.51327373    -0.51340
C187        C  0.24838699  0.72649180  0.41864417     0.70680
O188        O  0.25392761  0.74970367  0.44996718    -0.46200
C189        C  0.32209914  0.65097042  0.48016606     0.75390
O190        O  0.22265204  0.74597085  0.53327013    -0.58060
O191        O  0.28509395  0.63203298  0.47847908    -0.48150
O192        O  0.27321815  0.70386485  0.55248304    -0.54490
C193        C  0.17214801  0.64657930  0.50231105     0.85570
O194        O  0.23873683  0.68755364  0.42509586    -0.56380
O195        O  0.31989386  0.69114416  0.48770994    -0.59670
C196        C  0.25110835  0.76886497  0.73081184     0.01000
C197        C  0.23290446  0.79970081  0.75588507     0.01000
In198      In  0.24391664  0.88718886  0.99559838     1.36870
C199        C  0.24661646  0.84792528  0.06580456     0.78020
O200        O  0.31801224  0.89040288  0.99486335    -0.60430
O201        O  0.28225348  0.94833570  0.98584097    -0.51340
C202        C  0.24824178  0.85135320  0.92227343     0.70680
O203        O  0.25625452  0.82978594  0.95333332    -0.46200
C204        C  0.16664570  0.92697612  0.00338366     0.75390
O205        O  0.22991239  0.82974785  0.03513843    -0.58060
O206        O  0.20280765  0.94569235  0.01084619    -0.48150
O207        O  0.26164615  0.88542388  0.06030902    -0.54490
C208        C  0.31953619  0.93063806  0.98893285     0.85570
O209        O  0.23576354  0.88958649  0.92937680    -0.56380
O210        O  0.17013710  0.88753625  0.99347112    -0.59670
In211      In  0.10452372  0.03662493  0.74654848     1.36870
C212        C  0.06906813  0.04326785  0.81990641     0.78020
O213        O  0.10440646  0.96466660  0.74995211    -0.60430
O214        O  0.16199780  0.99443301  0.72677738    -0.51340
C215        C  0.05967278  0.03845123  0.67817386     0.70680
O216        O  0.04610504  0.01748022  0.70810787    -0.46200
C217        C  0.15039017  0.10975393  0.75273702     0.75390
O218        O  0.04625803  0.04754670  0.78858789    -0.58060
O219        O  0.16833688  0.07298490  0.75494742    -0.48150
O220        O  0.10890597  0.03388450  0.81326194    -0.54490
C221        C  0.14254847  0.95950962  0.73521203     0.85570
O222        O  0.09514487  0.05905652  0.68372593    -0.56380
O223        O  0.10915754  0.10870608  0.74733625    -0.59670
In224      In  0.89691937  0.03177689  0.24916510     1.36870
C225        C  0.93478167  0.03411310  0.32167296     0.78020
O226        O  0.89305801  0.10283469  0.23803854    -0.60430
O227        O  0.83590661  0.07148788  0.26024695    -0.51340
C228        C  0.93829374  0.03292745  0.17792402     0.70680
O229        O  0.95175141  0.05473547  0.20793947    -0.46200
C230        C  0.84686753  0.96116385  0.24553211     0.75390
O231        O  0.95434898  0.01777076  0.29124752    -0.58060
O232        O  0.83273689  0.99865289  0.23861050    -0.48150
O233        O  0.89662997  0.04721224  0.31445075    -0.54490
C234        C  0.85349856  0.10657720  0.24971080     0.85570
O235        O  0.90551813  0.00906399  0.18507214    -0.56380
O236        O  0.88737707  0.95967457  0.25427617    -0.59670
C237        C  0.98106727  0.04972503  0.00954526     0.01000
C238        C  0.01345960  0.03276788  0.98509834     0.01000
C239        C  0.02334706  0.03498747  0.51021996     0.01000
C240        C  0.98850413  0.02432406  0.48617396     0.01000
C241        C  0.97835610  0.07927305  0.07935677    -0.11830
C242        C  0.97874860  0.04227196  0.05402805     0.05170
C243        C  0.97140161  0.00118637  0.07142216    -0.07120
C244        C  0.96085233  0.99897390  0.11270531    -0.07860
C245        C  0.95708906  0.03649446  0.13694326    -0.01940
C246        C  0.96693863  0.07708842  0.12022183     0.04400
N247        N  0.96119984  0.11675408  0.14289412     0.66910
H248        H  0.98435206  0.11079807  0.06674765     0.15810
H249        H  0.95341702  0.96775166  0.12562198     0.15520
N250        N  0.97267019  0.96163298  0.04804510     0.74610
O251        O  0.98893206  0.14709114  0.13911393    -0.38840
O252        O  0.92458569  0.12473543  0.15988153    -0.38780
O253        O  0.98948734  0.92813384  0.06273263    -0.39480
O254        O  0.95168663  0.95820145  0.01550579    -0.39550
C255        C  0.99300447  0.01572482  0.37180713    -0.11830
C256        C  0.95391197  0.03772179  0.36266703     0.05170
C257        C  0.93273575  0.06234560  0.39356917    -0.07120
C258        C  0.94903433  0.06202182  0.43270867    -0.07860
C259        C  0.98523326  0.03645669  0.44288101    -0.02420
C260        C  0.00863344  0.01466735  0.41161648     0.04400
N261        N  0.04711778  0.98994684  0.41980151     0.66910
H262        H  0.01039233  0.99756575  0.34838727     0.15810
H263        H  0.93053059  0.07907518  0.45599333     0.15520
N264        N  0.89291689  0.08579438  0.38665089     0.74610
O265        O  0.04379963  0.94939107  0.42276580    -0.38840
O266        O  0.08454703  0.00642953  0.41276812    -0.38780
O267        O  0.85639940  0.06590593  0.38711207    -0.39480
O268        O  0.89322145  0.12658156  0.38975316    -0.39550
C269        C  0.00762195  0.03533542  0.86980229    -0.11830
C270        C  0.05108584  0.04832498  0.86122101     0.05170
C271        C  0.07802432  0.06329513  0.89292236    -0.07120
C272        C  0.06232480  0.06224706  0.93249538    -0.07860
C273        C  0.02045436  0.04513072  0.94197947    -0.02420
C274        C  0.99232024  0.03236910  0.90987334     0.04400
N275        N  0.95018741  0.01261406  0.91688076     0.66910
H276        H  0.98672482  0.02380485  0.84548469     0.15810
H277        H  0.08452277  0.07209667  0.95642003     0.15520
N278        N  0.12206481  0.07839131  0.88565054     0.74610
O279        O  0.91724187  0.02470477  0.89699363    -0.38840
O280        O  0.94798355  0.97726261  0.93522587    -0.38780
O281        O  0.13001765  0.11853681  0.88658468    -0.39480
O282        O  0.15376160  0.05203408  0.88659730    -0.39550
C283        C  0.02510819  0.07368707  0.57585823    -0.11830
C284        C  0.02071507  0.03358202  0.55537036     0.05170
C285        C  0.01983022  0.99518756  0.57825135    -0.07120
C286        C  0.02780184  0.99814861  0.62001432    -0.07860
C287        C  0.03745876  0.03806313  0.63891275    -0.02420
C288        C  0.03349703  0.07651581  0.61715508     0.04400
N289        N  0.03877048  0.11846936  0.63631118     0.66910
H290        H  0.02359015  0.10336251  0.55906395     0.15810
H291        H  0.03059101  0.96868965  0.63706849     0.15520
N292        N  0.01363762  0.95305138  0.56006155     0.74610
O293        O  0.05076882  0.15067678  0.61591103    -0.38840
O294        O  0.02712559  0.12449790  0.67264382    -0.38780
O295        O  0.03281705  0.94292119  0.52736594    -0.39480
O296        O  0.99306510  0.92407923  0.57908087    -0.39550
C297        C  0.11894238  0.98695330  0.02932664    -0.11830
C298        C  0.12400779  0.95005626  0.00430124     0.05170
C299        C  0.08925514  0.93751536  0.97850852    -0.07120
C300        C  0.05126004  0.96283582  0.97733002    -0.07860
C301        C  0.04763312  0.00193625  0.99939233    -0.02420
C302        C  0.08150784  0.01355935  0.02681823     0.04400
N303        N  0.08019740  0.05300953  0.05041917     0.66910
H304        H  0.14548809  0.99654383  0.04932658     0.15810
H305        H  0.02603093  0.95402234  0.95575809     0.15520
N306        N  0.09370147  0.90221065  0.95000188     0.74610
O307        O  0.09403771  0.05342824  0.08622553    -0.38840
O308        O  0.07113107  0.08846299  0.03419694    -0.38780
O309        O  0.06185584  0.87628639  0.94463695    -0.39480
O310        O  0.12513927  0.90222542  0.92470305    -0.39550
C311        C  0.22499991  0.86794049  0.71689441    -0.11830
C312        C  0.20511882  0.83537772  0.74002043     0.05170
C313        C  0.16194961  0.84195214  0.75522441    -0.07120
C314        C  0.14110241  0.88154465  0.74986247    -0.07860
C315        C  0.16270413  0.91590985  0.73073101    -0.02420
C316        C  0.20429855  0.90823592  0.71197936     0.04400
N317        N  0.22636312  0.94088446  0.68885421     0.66910
H318        H  0.25805059  0.86298617  0.70494058     0.15810
H319        H  0.10885549  0.88629402  0.76364409     0.15520
N320        N  0.13970266  0.80998844  0.77869890     0.74610
O321        O  0.26784644  0.94480936  0.69038211    -0.38840
O322        O  0.20554894  0.96100086  0.66226985    -0.38780
O323        O  0.14602007  0.80950606  0.81623567    -0.39480
O324        O  0.10507467  0.79258453  0.76489720    -0.39550
C325        C  0.26197865  0.84792239  0.80934387    -0.11830
C326        C  0.24575701  0.80644062  0.79916817     0.05170
C327        C  0.23762905  0.77679846  0.83065813    -0.07120
C328        C  0.24233423  0.79108811  0.87110294    -0.07860
C329        C  0.25331772  0.83433659  0.88056616    -0.02420
C330        C  0.26512761  0.86247355  0.84920341     0.04400
N331        N  0.27945491  0.90627282  0.85710539     0.66910
H332        H  0.27083458  0.87022261  0.78576062     0.15810
H333        H  0.23373917  0.76933242  0.89524568     0.15520
N334        N  0.22174679  0.73360152  0.82287170     0.74610
O335        O  0.30795931  0.91427906  0.88380464    -0.38840
O336        O  0.26706099  0.93642717  0.83466042    -0.38780
O337        O  0.23446486  0.70290778  0.84450295    -0.39480
O338        O  0.19119620  0.72673222  0.79793053    -0.39550
C339        C  0.20809480  0.75880059  0.62272891    -0.11830
C340        C  0.24829717  0.75572985  0.60154964     0.05170
C341        C  0.28826125  0.76374792  0.62195297    -0.07120
C342        C  0.28709663  0.77118342  0.66373988    -0.07860
C343        C  0.24730192  0.77027566  0.68585788    -0.02420
C344        C  0.20699960  0.76487091  0.66487323     0.04400
N345        N  0.16527711  0.76158794  0.68559433     0.66910
H346        H  0.17758029  0.75187771  0.60699783     0.15810
H347        H  0.31789955  0.77588341  0.67953458     0.15520
N348        N  0.33017403  0.76335367  0.60094486     0.74610
O349        O  0.13081038  0.77608933  0.66960008    -0.38840
O350        O  0.16145952  0.73848676  0.71641494    -0.38780
O351        O  0.33296373  0.77537214  0.56480545    -0.39480
O352        O  0.36520460  0.75469675  0.61947914    -0.39550
C353        C  0.24790252  0.78868572  0.32019503    -0.11830
C354        C  0.27081274  0.75910524  0.29483443     0.05170
C355        C  0.28845444  0.72133913  0.31187718    -0.07120
C356        C  0.28114037  0.71308576  0.35250354    -0.07860
C357        C  0.25645899  0.74116642  0.37724121    -0.02420
C358        C  0.24012587  0.78009229  0.36134096     0.04400
N359        N  0.21277811  0.80915167  0.38500084     0.66910
H360        H  0.23233390  0.81652200  0.30704985     0.15810
H361        H  0.29445231  0.68363149  0.36484914     0.15520
N362        N  0.31182656  0.68955488  0.28808707     0.74610
O363        O  0.21059396  0.84864992  0.37605023    -0.38840
O364        O  0.18677121  0.79479330  0.41162495    -0.38780
O365        O  0.34715792  0.69987622  0.27026149    -0.39480
O366        O  0.30243925  0.64991368  0.29164288    -0.39550
C367        C  0.22474743  0.80390963  0.17062392    -0.11830
C368        C  0.26848240  0.79940103  0.18387957     0.05170
C369        C  0.30345277  0.80758274  0.15645855    -0.07120
C370        C  0.29437762  0.82033993  0.11743192    -0.07860
C371        C  0.25117286  0.82695659  0.10484844    -0.02420
C372        C  0.21532751  0.81844623  0.13147645     0.04400
N373        N  0.17002685  0.82705404  0.12089171     0.66910
H374        H  0.19799536  0.79983581  0.19210707     0.15810
H375        H  0.32177380  0.82751764  0.09727515     0.15520
N376        N  0.34868146  0.80627632  0.16824236     0.74610
O377        O  0.13876406  0.81238206  0.14218623    -0.38840
O378        O  0.16076599  0.85184979  0.09235450    -0.38780
O379        O  0.37203899  0.77466922  0.15647664    -0.39480
O380        O  0.36771636  0.84138272  0.17775930    -0.39550
C381        C  0.43514923  0.97198301  0.01063434    -0.11830
C382        C  0.43402205  0.01297906  0.99300368     0.05170
C383        C  0.39812101  0.02328138  0.96780163    -0.07120
C384        C  0.36213435  0.99440917  0.96536361    -0.07860
C385        C  0.36122607  0.95575164  0.98703161    -0.02420
C386        C  0.39921545  0.94345956  0.00827827     0.04400
N387        N  0.40067114  0.90415362  0.03059855     0.66910
H388        H  0.46285944  0.96354626  0.02937237     0.15810
H389        H  0.33353066  0.00326222  0.94798465     0.15520
N390        N  0.39599388  0.06330762  0.94641698     0.74610
O391        O  0.43396299  0.87984159  0.02729089    -0.38840
O392        O  0.37334029  0.89803960  0.05893480    -0.38780
O393        O  0.41167257  0.09773454  0.96145270    -0.39480
O394        O  0.37467152  0.06522612  0.91395649    -0.39550
C395        C  0.26795846  0.87408745  0.24261154    -0.11830
C396        C  0.29417611  0.83711671  0.24696244     0.05170
C397        C  0.33650063  0.84181695  0.26415616    -0.07120
C398        C  0.35384291  0.88363061  0.27055081    -0.07860
C399        C  0.32950048  0.92067679  0.26098242    -0.02420
C400        C  0.28463218  0.91568469  0.25033617     0.04400
N401        N  0.25580609  0.95215556  0.24649108     0.66910
H402        H  0.23439734  0.87053918  0.23194998     0.15810
H403        H  0.38766773  0.88701082  0.28052893     0.15520
N404        N  0.36361329  0.80521915  0.27254260     0.74610
O405        O  0.22843664  0.95306023  0.21802434    -0.38840
O406        O  0.25205301  0.97924606  0.27528791    -0.38780
O407        O  0.37176019  0.77740429  0.24525378    -0.39480
O408        O  0.38538769  0.80455421  0.30480441    -0.39550
C409        C  0.41253276  0.06179986  0.11032543    -0.11830
C410        C  0.44439349  0.04636783  0.13660172     0.05170
C411        C  0.48751813  0.03799092  0.12166797    -0.07120
C412        C  0.49613635  0.04204921  0.07990040    -0.07860
C413        C  0.46298455  0.05487570  0.05300833    -0.02420
C414        C  0.42149393  0.06698029  0.06945129     0.04400
N415        N  0.38769511  0.08486121  0.04510831     0.66910
H416        H  0.37996982  0.07031596  0.12175673     0.15810
H417        H  0.52797302  0.03217457  0.06835020     0.15520
N418        N  0.52197251  0.02288776  0.14740943     0.74610
O419        O  0.35073795  0.06590259  0.04294808    -0.38840
O420        O  0.39019161  0.12438623  0.03632931    -0.38780
O421        O  0.51347644  0.99652966  0.17511745    -0.39480
O422        O  0.56178044  0.03223265  0.13974909    -0.39550
C423        C  0.42930760  0.01629058  0.43681858    -0.11830
C424        C  0.47434882  0.02048810  0.44718316     0.05170
C425        C  0.50491323  0.02052644  0.41401931    -0.07120
C426        C  0.48953486  0.02817502  0.37474738    -0.07860
C427        C  0.44442882  0.03140339  0.36670033    -0.02420
C428        C  0.41415848  0.02301479  0.39798564     0.04400
N429        N  0.36755263  0.02148462  0.39120959     0.66910
H430        H  0.40422697  0.01150228  0.45950125     0.15810
H431        H  0.51294085  0.02894716  0.34984325     0.15520
N432        N  0.54777482  0.00168820  0.41648743     0.74610
O433        O  0.34731437  0.98578616  0.39348744    -0.38840
O434        O  0.34576246  0.05624437  0.39181079    -0.38780
O435        O  0.55017917  0.96209267  0.42500387    -0.39480
O436        O  0.57948458  0.01846177  0.39718981    -0.39550
C437        C  0.51352195  0.00852720  0.92590625    -0.11830
C438        C  0.50349854  0.05058399  0.93998658     0.05170
C439        C  0.50432924  0.08483235  0.91202041    -0.07120
C440        C  0.51662681  0.07665194  0.87192137    -0.07860
C441        C  0.53128451  0.03580557  0.85923183    -0.02420
C442        C  0.52885773  0.00082513  0.88619502     0.04400
N443        N  0.54287205  0.95790897  0.87427707     0.66910
H444        H  0.51202200  0.98190648  0.94662638     0.15810
H445        H  0.51885836  0.10363303  0.85149901     0.15520
N446        N  0.49621159  0.12887410  0.92386830     0.74610
O447        O  0.55705975  0.93214522  0.90026847    -0.38840
O448        O  0.53827738  0.94443591  0.83838020    -0.38780
O449        O  0.52908304  0.15327192  0.92998463    -0.39480
O450        O  0.46067571  0.14609586  0.91291856    -0.39550
C451        C  0.56455235  0.07284023  0.61366610    -0.11830
C452        C  0.54566195  0.04277501  0.64011434     0.05170
C453        C  0.51052264  0.01653331  0.62618329    -0.07120
C454        C  0.50024000  0.01617317  0.58499303    -0.07860
C455        C  0.52072581  0.04452759  0.55776888    -0.02420
C456        C  0.55143486  0.07508299  0.57323589     0.04400
N457        N  0.56978302  0.10833626  0.54845968     0.66910
H458        H  0.58990458  0.09485778  0.62456868     0.15810
H459        H  0.47817314  0.99144241  0.57396502     0.15520
N460        N  0.48609318  0.98898313  0.65279116     0.74610
O461        O  0.54457981  0.13046123  0.52693785    -0.38840
O462        O  0.60908590  0.12098114  0.55361973    -0.38780
O463        O  0.46617759  0.00545974  0.68292606    -0.39480
O464        O  0.47654252  0.95077172  0.64174783    -0.39550
C465        C  0.31266151  0.23079746  0.24140380    -0.11830
C466        C  0.26691810  0.22654411  0.24770352     0.05170
C467        C  0.24856059  0.18465517  0.25210815    -0.07120
C468        C  0.27642415  0.14867048  0.25181666    -0.07860
C469        C  0.32242710  0.15294492  0.24819674    -0.02420
C470        C  0.34073201  0.19471415  0.24254893     0.04400
N471        N  0.38752849  0.20177143  0.24082878     0.66910
H472        H  0.32710833  0.26287312  0.23944342     0.15810
H473        H  0.26176177  0.11686098  0.25516091     0.15520
N474        N  0.20188893  0.17792944  0.25769268     0.74610
O475        O  0.40368866  0.22595349  0.21412834    -0.38840
O476        O  0.41091912  0.19215544  0.27066056    -0.38780
O477        O  0.17456336  0.19924824  0.23768891    -0.39480
O478        O  0.18793943  0.14686899  0.27861877    -0.39550
C479        C  0.27852861  0.33789455  0.18504850    -0.11830
C480        C  0.25198405  0.30170737  0.19360518     0.05170
C481        C  0.23305279  0.27849215  0.16088769    -0.07120
C482        C  0.23678902  0.29456897  0.12165618    -0.07860
C483        C  0.25883248  0.33368348  0.11424162    -0.02420
C484        C  0.28219849  0.35426841  0.14600893     0.04400
N485        N  0.30875373  0.39231517  0.13952746     0.66910
H486        H  0.29409110  0.35556622  0.20949922     0.15810
H487        H  0.21971061  0.27784570  0.09733954     0.15520
N488        N  0.20703900  0.24054649  0.16695276     0.74610
O489        O  0.31074074  0.42177076  0.16637976    -0.38840
O490        O  0.33446805  0.39413103  0.10939930    -0.38780
O491        O  0.16569854  0.24274943  0.16301135    -0.39480
O492        O  0.22550068  0.20411581  0.16331640    -0.39550
C493        C  0.05887073  0.10193514  0.48324445    -0.11830
C494        C  0.06307314  0.05861720  0.49494574     0.05170
C495        C  0.10547401  0.04272617  0.50375796    -0.07120
C496        C  0.14193211  0.07045907  0.50298869    -0.07860
C497        C  0.13744755  0.11447180  0.49444419    -0.02420
C498        C  0.09543260  0.13026184  0.48369030     0.04400
N499        N  0.08886442  0.17481216  0.47414844     0.66910
H500        H  0.02635487  0.11489444  0.47763152     0.15810
H501        H  0.17397852  0.05759021  0.51061195     0.15520
N502        N  0.11182430  0.99885962  0.51554159     0.74610
O503        O  0.06926926  0.18420821  0.44205571    -0.38840
O504        O  0.09344980  0.20364340  0.50126557    -0.38780
O505        O  0.10800010  0.96874286  0.48959861    -0.39480
O506        O  0.13037811  0.99116722  0.54856999    -0.39550
C507        C  0.45032860  0.11040672  0.48983141    -0.11830
C508        C  0.44841923  0.06847926  0.50536486     0.05170
C509        C  0.40921584  0.05467140  0.52530678    -0.07120
C510        C  0.37214377  0.08190958  0.52538440    -0.07860
C511        C  0.37275893  0.12190818  0.50574080    -0.02420
C512        C  0.41314928  0.13715113  0.48980046     0.04400
N513        N  0.41628490  0.17786648  0.47014840     0.66910
H514        H  0.47980952  0.12089664  0.47394681     0.15810
H515        H  0.34159063  0.07040562  0.53875208     0.15520
N516        N  0.40440900  0.01196386  0.54176092     0.74610
O517        O  0.44426242  0.20554580  0.48210559    -0.38840
O518        O  0.39891199  0.18200619  0.43601801    -0.38780
O519        O  0.42155974  0.97932922  0.52441337    -0.39480
O520        O  0.37883748  0.00606427  0.57147903    -0.39550
C521        C  0.20370283  0.24057731  0.36757138    -0.11830
C522        C  0.24403167  0.24484008  0.38783277     0.05170
C523        C  0.28020222  0.26445254  0.36812714    -0.07120
C524        C  0.27600682  0.27556746  0.32754692    -0.07860
C525        C  0.23653511  0.26899073  0.30607905    -0.02420
C526        C  0.19897214  0.25337464  0.32724883     0.04400
N527        N  0.15652391  0.24878101  0.30840897     0.66910
H528        H  0.17574325  0.22656141  0.38335281     0.15810
H529        H  0.30533847  0.28597201  0.31147474     0.15520
N530        N  0.32236649  0.27023233  0.38728093     0.74610
O531        O  0.12835587  0.22232523  0.32191638    -0.38840
O532        O  0.14518292  0.27401861  0.28093658    -0.38780
O533        O  0.33669370  0.24247875  0.41128219    -0.39480
O534        O  0.34760976  0.30077715  0.37682755    -0.39550
C535        C  0.18858209  0.22484474  0.73549249    -0.11830
C536        C  0.22948200  0.22613796  0.75519448     0.05170
C537        C  0.24213248  0.18988269  0.77820944    -0.07120
C538        C  0.21483137  0.15270738  0.77785460    -0.07860
C539        C  0.17575513  0.15077778  0.75537368    -0.02420
C540        C  0.16194261  0.18792181  0.73503429     0.04400
N541        N  0.12336476  0.18753481  0.71029669     0.66910
H542        H  0.17886689  0.25166819  0.71699640     0.15810
H543        H  0.22496476  0.12436313  0.79412707     0.15520
N544        N  0.28266424  0.18883899  0.80058101     0.74610
O545        O  0.09671374  0.21883344  0.71239586    -0.38840
O546        O  0.12061363  0.16077452  0.68120264    -0.38780
O547        O  0.31674034  0.20827822  0.78830497    -0.39480
O548        O  0.28584316  0.16465642  0.83071650    -0.39550
C549        C  0.28828839  0.28978577  0.83777142    -0.11830
C550        C  0.25552323  0.30063003  0.81001396     0.05170
C551        C  0.21890080  0.32553063  0.82401689    -0.07120
C552        C  0.21830497  0.34105367  0.86420399    -0.07860
C553        C  0.25227354  0.33161322  0.89103481    -0.02420
C554        C  0.28700609  0.30429712  0.87806797     0.04400
N555        N  0.32322275  0.29391044  0.90393287     0.66910
H556        H  0.31765555  0.27347782  0.82734186     0.15810
H557        H  0.19122446  0.36125312  0.87471752     0.15520
N558        N  0.18319840  0.33711608  0.79790515     0.74610
O559        O  0.34248676  0.25789700  0.89984681    -0.38840
O560        O  0.33993736  0.32247539  0.92687052    -0.38780
O561        O  0.17394570  0.31412345  0.76733500    -0.39480
O562        O  0.15890603  0.36915545  0.80660264    -0.39550
C563        C  0.24834945  0.28804537  0.67225496    -0.11830
C564        C  0.27076013  0.26004519  0.69814361     0.05170
C565        C  0.29227489  0.22355922  0.68092931    -0.07120
C566        C  0.28863019  0.21436609  0.63980812    -0.07860
C567        C  0.26366250  0.24029561  0.61440910    -0.02420
C568        C  0.24484624  0.27884405  0.63051613     0.04400
N569        N  0.21964619  0.30724746  0.60597904     0.66910
H570        H  0.23064780  0.31550693  0.68499476     0.15810
H571        H  0.30441132  0.18532000  0.62791033     0.15520
N572        N  0.31579346  0.19359892  0.70497567     0.74610
O573        O  0.18336491  0.32214454  0.61902481    -0.38840
O574        O  0.23709358  0.32360692  0.57504795    -0.38780
O575        O  0.30224895  0.15495313  0.70678765    -0.39480
O576        O  0.35531247  0.20193087  0.71408989    -0.39550
C577        C  0.40678677  0.56162229  0.46590657    -0.11830
C578        C  0.44159430  0.57849112  0.48926862     0.05170
C579        C  0.44085232  0.62301806  0.49956031    -0.07120
C580        C  0.40244918  0.64713597  0.49338169    -0.07860
C581        C  0.36474472  0.62781698  0.47645997    -0.02420
C582        C  0.36814059  0.58543880  0.46001237     0.04400
N583        N  0.33132558  0.56422048  0.44129433     0.66910
H584        H  0.40589110  0.52784276  0.45771862     0.15810
H585        H  0.40141548  0.68055218  0.50387757     0.15520
N586        N  0.47882138  0.64416832  0.51616355     0.74610
O587        O  0.33368462  0.55398760  0.40432549    -0.38840
O588        O  0.30239102  0.54633157  0.46309551    -0.38780
O589        O  0.51369777  0.64583442  0.49513608    -0.39480
O590        O  0.47445381  0.66988021  0.54594411    -0.39550
C591        C  0.54905456  0.56630379  0.43498155    -0.11830
C592        C  0.51484881  0.53781084  0.44586151     0.05170
C593        C  0.49618863  0.51036127  0.41532137    -0.07120
C594        C  0.51401613  0.51144326  0.37595170    -0.07860
C595        C  0.55142189  0.53633087  0.36699900    -0.02420
C596        C  0.56876938  0.56448313  0.39677190     0.04400
N597        N  0.60695864  0.59082166  0.38916447     0.66910
H598        H  0.56313121  0.58804425  0.45723194     0.15810
H599        H  0.50050614  0.49034469  0.35264555     0.15520
N600        N  0.46030470  0.48061809  0.42289885     0.74610
O601        O  0.60493068  0.63120790  0.39536656    -0.38840
O602        O  0.64437899  0.57320783  0.38573773    -0.38780
O603        O  0.43467431  0.46962769  0.39463437    -0.39480
O604        O  0.45371221  0.46492532  0.45726610    -0.39550
C605        C  0.35835018  0.38048935  0.74913416    -0.11830
C606        C  0.33339802  0.41869916  0.74816625     0.05170
C607        C  0.28698835  0.41533259  0.74384695    -0.07120
C608        C  0.26665042  0.37458387  0.74591080    -0.07860
C609        C  0.29127898  0.33678590  0.75104113    -0.02420
C610        C  0.33771406  0.33973799  0.75011322     0.04400
N611        N  0.36446149  0.30182019  0.74984885     0.66910
H612        H  0.39404946  0.38219559  0.75043996     0.15810
H613        H  0.23113346  0.37262765  0.74406757     0.15520
N614        N  0.25994041  0.45262562  0.73739304     0.74610
O615        O  0.37990741  0.28817402  0.71654249    -0.38840
O616        O  0.38276556  0.29058040  0.78200546    -0.38780
O617        O  0.26911666  0.47786223  0.70894029    -0.39480
O618        O  0.22310040  0.45622115  0.75527290    -0.39550
C619        C  0.34161878  0.69325277  0.76807918    -0.11830
C620        C  0.32402028  0.65309649  0.75538826     0.05170
C621        C  0.28156925  0.65159950  0.73823796    -0.07120
C622        C  0.25796447  0.68987241  0.73413590    -0.07860
C623        C  0.27578291  0.73038041  0.74516093    -0.02420
C624        C  0.31834561  0.73221242  0.76266181     0.04400
N625        N  0.33927078  0.77266208  0.77348712     0.66910
H626        H  0.37433009  0.69438749  0.78101909     0.15810
H627        H  0.22625153  0.68812222  0.71946751     0.15520
N628        N  0.26332210  0.61221418  0.72154730     0.74610
O629        O  0.36560195  0.77455494  0.80277701    -0.38840
O630        O  0.33508407  0.80548958  0.75174679    -0.38780
O631        O  0.22288544  0.60361737  0.72673316    -0.39480
O632        O  0.28519443  0.59035234  0.69581644    -0.39550
C633        C  0.40755654  0.54396213  0.61190370    -0.11830
C634        C  0.44038587  0.53841433  0.64052867     0.05170
C635        C  0.48405569  0.53144989  0.62677944    -0.07120
C636        C  0.49380697  0.53372187  0.58512115    -0.07860
C637        C  0.46091416  0.54057474  0.55570832    -0.02420
C638        C  0.41655232  0.54337029  0.57061370     0.04400
N639        N  0.37895234  0.54192091  0.54495855     0.66910
H640        H  0.37338075  0.54724714  0.62151432     0.15810
H641        H  0.52783245  0.52962600  0.57690136     0.15520
N642        N  0.51865924  0.52068114  0.65411087     0.74610
O643        O  0.36926679  0.50651685  0.52753596    -0.38840
O644        O  0.34917633  0.57012125  0.54980503    -0.38780
O645        O  0.51367853  0.48914252  0.67744799    -0.39480
O646        O  0.55675112  0.53674820  0.64950304    -0.39550
C647        C  0.36787889  0.50302486  0.02539742    -0.11830
C648        C  0.36877274  0.45986759  0.01119034     0.05170
C649        C  0.40991454  0.44094353  0.00133629    -0.07120
C650        C  0.44834226  0.46598492  0.00359723    -0.07860
C651        C  0.44690076  0.51024547  0.01350117    -0.02420
C652        C  0.40638868  0.52856549  0.02668266     0.04400
N653        N  0.40336116  0.57303338  0.03998100     0.66910
H654        H  0.33674549  0.51738161  0.03466383     0.15810
H655        H  0.47915205  0.45162639  0.99370039     0.15520
N656        N  0.41313910  0.39780000  0.98517746     0.74610
O657        O  0.36780181  0.59368567  0.03604776    -0.38840
O658        O  0.43405251  0.59007952  0.06025607    -0.38780
O659        O  0.39953755  0.38994148  0.94992966    -0.39480
O660        O  0.43851621  0.37110177  0.00150196    -0.39550
C661        C  0.44188405  0.57139679  0.94180964    -0.11830
C662        C  0.47805524  0.54597010  0.95248266     0.05170
C663        C  0.50327412  0.52561901  0.92143382    -0.07120
C664        C  0.48983702  0.52862480  0.88115961    -0.07860
C665        C  0.45102103  0.55047240  0.87136117    -0.02420
C666        C  0.42778266  0.57373385  0.90185628     0.04400
N667        N  0.38959663  0.59937057  0.89296153     0.66910
H668        H  0.42354927  0.58876289  0.96502265     0.15810
H669        H  0.50800524  0.51103784  0.85784403     0.15520
N670        N  0.54083302  0.49965559  0.93004771     0.74610
O671        O  0.35845906  0.60293667  0.91839790    -0.38840
O672        O  0.38892402  0.62218668  0.86175378    -0.38780
O673        O  0.53505439  0.46060248  0.93930728    -0.39480
O674        O  0.57830833  0.51139920  0.91721764    -0.39550
C675        C  0.51760861  0.50777171  0.08278853    -0.11830
C676        C  0.52182915  0.54755219  0.06304240     0.05170
C677        C  0.53728408  0.58420941  0.08531888    -0.07120
C678        C  0.55214508  0.57915859  0.12467069    -0.07860
C679        C  0.55057937  0.53902642  0.14336249    -0.02420
C680        C  0.53178691  0.50298794  0.12278585     0.04400
N681        N  0.53004004  0.46079066  0.14042533     0.66910
H682        H  0.50711383  0.47925383  0.06605380     0.15810
H683        H  0.56530423  0.60703523  0.14097094     0.15520
N684        N  0.53935852  0.62662972  0.06815831     0.74610
O685        O  0.49877839  0.43515505  0.13181584    -0.38840
O686        O  0.56235083  0.44683433  0.16008458    -0.38780
O687        O  0.50712649  0.64094523  0.04865833    -0.39480
O688        O  0.57105135  0.65185036  0.07653025    -0.39550
C689        C  0.08996717  0.55366548  0.51231347    -0.11830
C690        C  0.04987956  0.57449124  0.50423275     0.05170
C691        C  0.04998129  0.62024496  0.50228908    -0.07120
C692        C  0.09034382  0.64282380  0.50304906    -0.07860
C693        C  0.13072525  0.62122926  0.50673627    -0.02420
C694        C  0.13022780  0.57615887  0.51319748     0.04400
N695        N  0.17016526  0.55183988  0.51696324     0.66910
H696        H  0.09102395  0.51884120  0.51388067     0.15810
H697        H  0.09021691  0.67771895  0.50022833     0.15520
N698        N  0.00980318  0.64440416  0.49944179     0.74610
O699        O  0.17335221  0.52463548  0.54474112    -0.38840
O700        O  0.19764868  0.55059314  0.48810557    -0.38780
O701        O  0.97633531  0.63353582  0.51983380    -0.39480
O702        O  0.00954182  0.68022140  0.48164563    -0.39550
C703        C  0.12885246  0.49761602  0.98286374    -0.11830
C704        C  0.12935156  0.45518439  0.99756157     0.05170
C705        C  0.08906519  0.43600697  0.00957627    -0.07120
C706        C  0.05002691  0.45990974  0.00785126    -0.07860
C707        C  0.04964816  0.50317974  0.99538660    -0.02420
C708        C  0.08979419  0.52205187  0.98192013     0.04400
N709        N  0.09244513  0.56652324  0.96994548     0.66910
H710        H  0.15945597  0.51245741  0.97292015     0.15810
H711        H  0.02019165  0.44559250  0.01997718     0.15520
N712        N  0.08733131  0.39380261  0.02682458     0.74610
O713        O  0.12675119  0.58859354  0.97726878    -0.38840
O714        O  0.06342740  0.58216498  0.94752060    -0.38780
O715        O  0.10670004  0.38715975  0.05968381    -0.39480
O716        O  0.05929794  0.36650651  0.01421804    -0.39550
C717        C  0.19601170  0.41046093  0.27428692    -0.11830
C718        C  0.16202890  0.41819334  0.24682243     0.05170
C719        C  0.14856805  0.38462166  0.22021148    -0.07120
C720        C  0.16946436  0.34441728  0.22178370    -0.07860
C721        C  0.20583878  0.33744912  0.24693248    -0.02420
C722        C  0.21883182  0.37097947  0.27402340     0.04400
N723        N  0.25650170  0.36712476  0.29947607     0.66910
H724        H  0.20641666  0.43614417  0.29484034     0.15810
H725        H  0.15979610  0.31939273  0.20033159     0.15520
N726        N  0.11716431  0.39180343  0.18878317     0.74610
O727        O  0.29420268  0.36081671  0.28403630    -0.38840
O728        O  0.25360638  0.37855089  0.33615622    -0.38780
O729        O  0.12168810  0.42398371  0.16611610    -0.39480
O730        O  0.09048480  0.36207914  0.17871354    -0.39550
C731        C  0.21873431  0.65184708  0.21769713    -0.11830
C732        C  0.17691902  0.65428762  0.23638612     0.05170
C733        C  0.16169829  0.69494808  0.25063471    -0.07120
C734        C  0.18974607  0.73099816  0.24864832    -0.07860
C735        C  0.23346405  0.72749341  0.23432452    -0.02420
C736        C  0.24746448  0.68779097  0.21632721     0.04400
N737        N  0.29086819  0.68236553  0.19862885     0.66910
H738        H  0.22968466  0.62108093  0.20511375     0.15810
H739        H  0.17881937  0.76125485  0.26243309     0.15520
N740        N  0.11964906  0.69982414  0.27038474     0.74610
O741        O  0.30517548  0.64503661  0.18962320    -0.38840
O742        O  0.31446166  0.71463964  0.19002240    -0.38780
O743        O  0.11190033  0.68006027  0.30270816    -0.39480
O744        O  0.09451578  0.73032179  0.26059967    -0.39550
C745        C  0.01026258  0.51835583  0.12544568    -0.11830
C746        C  0.04580409  0.54566371  0.13513118     0.05170
C747        C  0.06371770  0.57252114  0.10535931    -0.07120
C748        C  0.04791552  0.56966701  0.06610276    -0.07860
C749        C  0.01487459  0.53980381  0.05498073    -0.02420
C750        C  0.99476089  0.51407249  0.08549478     0.04400
N751        N  0.96093027  0.48206967  0.07696048     0.66910
H752        H  0.99652844  0.49814956  0.14883733     0.15810
H753        H  0.06401975  0.58906375  0.04341815     0.15520
N754        N  0.09887964  0.60219555  0.11422384     0.74610
O755        O  0.94648990  0.45801749  0.10457325    -0.38840
O756        O  0.94433591  0.47795363  0.04242851    -0.38780
O757        O  0.13839045  0.58954804  0.11148516    -0.39480
O758        O  0.09095567  0.64224778  0.11652514    -0.39550
C759        C  0.05688902  0.51277183  0.43024100    -0.11830
C760        C  0.01990540  0.53778100  0.44147699     0.05170
C761        C  0.99503003  0.55675803  0.41028230    -0.07120
C762        C  0.01030186  0.55376969  0.37014551    -0.07860
C763        C  0.04996632  0.53287075  0.36021644    -0.02420
C764        C  0.07221480  0.50998954  0.39033200     0.04400
N765        N  0.11012222  0.48355786  0.38103784     0.66910
H766        H  0.07466159  0.49532793  0.45277513     0.15810
H767        H  0.99235089  0.57029187  0.34689415     0.15520
N768        N  0.95493368  0.57990510  0.41803968     0.74610
O769        O  0.14110567  0.48078470  0.40608057    -0.38840
O770        O  0.11005850  0.45855472  0.35047789    -0.38780
O771        O  0.95514538  0.61319285  0.44049823    -0.39480
O772        O  0.92189773  0.57279355  0.39588088    -0.39550
C773        C  0.96827819  0.50506685  0.87715201    -0.11830
C774        C  0.95320035  0.54315689  0.85941062     0.05170
C775        C  0.95312608  0.58188961  0.88236411    -0.07120
C776        C  0.96665268  0.58163862  0.92240183    -0.07860
C777        C  0.97748637  0.54295826  0.94191433    -0.02420
C778        C  0.97875411  0.50408506  0.91846587     0.04400
N779        N  0.98546586  0.46285086  0.93632399     0.66910
H780        H  0.96765039  0.47495479  0.85985909     0.15810
H781        H  0.96526266  0.61191434  0.93927021     0.15520
N782        N  0.93717500  0.62150543  0.86626837     0.74610
O783        O  0.95900340  0.45002221  0.96320993    -0.38840
O784        O  0.01103835  0.43581314  0.91934941    -0.38780
O785        O  0.89639675  0.62971176  0.86830308    -0.39480
O786        O  0.96406112  0.65179002  0.85908531    -0.39550
C787        C  0.98692963  0.52328630  0.62431696    -0.11830
C788        C  0.94611705  0.54173138  0.63458509     0.05170
C789        C  0.92144849  0.56220578  0.60459243    -0.07120
C790        C  0.93648346  0.56042523  0.56464998    -0.07860
C791        C  0.97491703  0.53783587  0.55299831    -0.02420
C792        C  0.00141649  0.52036026  0.58388615     0.04400
N793        N  0.04190245  0.49804842  0.57543627     0.66910
H794        H  0.00619203  0.50815357  0.64752720     0.15810
H795        H  0.91713258  0.57656963  0.54237247     0.15520
N796        N  0.88111831  0.58494116  0.61397981     0.74610
O797        O  0.07475248  0.50437859  0.59800763    -0.38840
O798        O  0.04253279  0.46639522  0.55097818    -0.38780
O799        O  0.87809191  0.60828916  0.64550151    -0.39480
O800        O  0.85039306  0.58592332  0.58851941    -0.39550
C801        C  0.62165740  0.08177054  0.00036521    -0.11830
C802        C  0.62168353  0.12709072  0.00437821     0.05170
C803        C  0.58091610  0.14854898  0.01123833    -0.07120
C804        C  0.54132292  0.12449484  0.01085016    -0.07860
C805        C  0.54149437  0.08004941  0.00163395    -0.02420
C806        C  0.58228535  0.05791452  0.99906776     0.04400
N807        N  0.58435164  0.01150236  0.99399079     0.66910
H808        H  0.65267642  0.06463972  0.99728827     0.15810
H809        H  0.51007530  0.14139743  0.01301623     0.15520
N810        N  0.57841385  0.19476682  0.01509502     0.74610
O811        O  0.61694427  0.99411399  0.97614497    -0.38840
O812        O  0.55620495  0.98747078  0.01092689    -0.38780
O813        O  0.59039506  0.21793617  0.98594586    -0.39480
O814        O  0.55550367  0.21159665  0.04319589    -0.39550
C815        C  0.90247542  0.14263844  0.98916520    -0.11830
C816        C  0.86218790  0.11998991  0.98740627     0.05170
C817        C  0.86288170  0.07423859  0.98556991    -0.07120
C818        C  0.90295096  0.05266325  0.99024627    -0.07860
C819        C  0.94319068  0.07502237  0.99377555    -0.02420
C820        C  0.94307993  0.12090746  0.99204718     0.04400
N821        N  0.98293851  0.14614013  0.99582518     0.66910
H822        H  0.90226930  0.17771673  0.98966366     0.15810
H823        H  0.90243245  0.01777705  0.99204464     0.15520
N824        N  0.82346216  0.04906050  0.97924299     0.74610
O825        O  0.98173731  0.18371120  0.01147309    -0.38840
O826        O  0.01844896  0.13321365  0.97970293    -0.38780
O827        O  0.79908649  0.05680440  0.94956108    -0.39480
O828        O  0.81729852  0.01461964  0.99850502    -0.39550
C829        C  0.62461436  0.50083958  0.51704428    -0.11830
C830        C  0.62379745  0.45629092  0.50808116     0.05170
C831        C  0.58243115  0.43555890  0.50316836    -0.07120
C832        C  0.54372131  0.46044971  0.50328003    -0.07860
C833        C  0.54483790  0.50573682  0.50785952    -0.02420
C834        C  0.58597680  0.52592329  0.51730947     0.04400
N835        N  0.58960674  0.57167066  0.52640859     0.66910
H836        H  0.65598836  0.51662365  0.52280340     0.15810
H837        H  0.51274523  0.44407187  0.49832044     0.15520
N838        N  0.57891513  0.38951020  0.49744530     0.74610
O839        O  0.62600096  0.59116570  0.52172533    -0.38840
O840        O  0.55798819  0.59199987  0.54275561    -0.38780
O841        O  0.59581683  0.36452202  0.52270339    -0.39480
O842        O  0.55324255  0.37396279  0.47106376    -0.39550
C843        C  0.90107844  0.43591239  0.49548346    -0.11830
C844        C  0.86163855  0.45887016  0.49079374     0.05170
C845        C  0.86402145  0.50341204  0.48186576    -0.07120
C846        C  0.90526881  0.52413965  0.48091293    -0.07860
C847        C  0.94439581  0.50225400  0.49012708    -0.02420
C848        C  0.94233419  0.45685260  0.49466129     0.04400
N849        N  0.98159923  0.43146746  0.49813633     0.66910
H850        H  0.89980809  0.40126152  0.49995075     0.15810
H851        H  0.90579214  0.55888215  0.47791226     0.15520
N852        N  0.82511868  0.52919729  0.47746460     0.74610
O853        O  0.98110370  0.39726995  0.51846007    -0.38840
O854        O  0.01448636  0.43911068  0.47571431    -0.38780
O855        O  0.79725579  0.53170126  0.50596740    -0.39480
O856        O  0.82324354  0.55610697  0.44932223    -0.39550
C857        C  0.75462925  0.37783103  0.77532582    -0.11830
C858        C  0.77292782  0.34160903  0.75544603     0.05170
C859        C  0.81774140  0.34285002  0.74295548    -0.07120
C860        C  0.84142269  0.38175854  0.74679874    -0.07860
C861        C  0.82174795  0.41948901  0.76268923    -0.02420
C862        C  0.77837973  0.41689874  0.77899749     0.04400
N863        N  0.75753817  0.45350942  0.79837933     0.66910
H864        H  0.72084809  0.37641577  0.78619078     0.15810
H865        H  0.87510998  0.38297627  0.73560344     0.15520
N866        N  0.83916311  0.30558579  0.72486219     0.74610
O867        O  0.71716135  0.46094423  0.79245282    -0.38840
O868        O  0.77731234  0.47427617  0.82599272    -0.38780
O869        O  0.82925491  0.26784727  0.73590928    -0.39480
O870        O  0.87106701  0.31039421  0.70052868    -0.39550
C871        C  0.73469171  0.19734371  0.75444428    -0.11830
C872        C  0.70862222  0.23369045  0.74614282     0.05170
C873        C  0.66422154  0.22699252  0.73491462    -0.07120
C874        C  0.64568935  0.18548195  0.73750411    -0.07860
C875        C  0.67071588  0.15001897  0.74976263    -0.02420
C876        C  0.71628442  0.15568560  0.75701318     0.04400
N877        N  0.74345891  0.12081959  0.77050230     0.66910
H878        H  0.76874768  0.20215876  0.76329552     0.15810
H879        H  0.61127768  0.18087143  0.72973022     0.15520
N880        N  0.63741811  0.26141021  0.72062344     0.74610
O881        O  0.78363515  0.11910658  0.76006878    -0.38840
O882        O  0.72960037  0.09597468  0.79771934    -0.38780
O883        O  0.64498711  0.27545676  0.68575294    -0.39480
O884        O  0.59953365  0.26722456  0.73592750    -0.39550
C885        C  0.77164264  0.27171470  0.82515382    -0.11830
C886        C  0.72961877  0.27633322  0.80804388     0.05170
C887        C  0.69193522  0.27033627  0.83294892    -0.07120
C888        C  0.69684893  0.25701555  0.87274082    -0.07860
C889        C  0.73856272  0.25021557  0.88889418    -0.02420
C890        C  0.77677349  0.25884163  0.86542018     0.04400
N891        N  0.82059897  0.25268867  0.88103103     0.66910
H892        H  0.80064999  0.27570334  0.80646062     0.15810
H893        H  0.66768524  0.25070643  0.89097254     0.15520
N894        N  0.64828436  0.27669834  0.81803145     0.74610
O895        O  0.85300449  0.24745722  0.85721336    -0.38840
O896        O  0.82785003  0.25566073  0.91840992    -0.38780
O897        O  0.61789694  0.25013574  0.82648799    -0.39480
O898        O  0.63829185  0.31268953  0.80336582    -0.39550
C899        C  0.75773386  0.28606601  0.66675898    -0.11830
C900        C  0.73393353  0.31116599  0.69523014     0.05170
C901        C  0.70984642  0.34726325  0.68174703    -0.07120
C902        C  0.71219016  0.35861123  0.64120898    -0.07860
C903        C  0.73817567  0.33546484  0.61312866    -0.02420
C904        C  0.76031729  0.29786629  0.62588005     0.04400
N905        N  0.78788901  0.27311272  0.59880539     0.66910
H906        H  0.77619865  0.25834968  0.67663351     0.15810
H907        H  0.69382275  0.38660294  0.63165643     0.15520
N908        N  0.68318212  0.37319804  0.70886005     0.74610
O909        O  0.82657222  0.26338952  0.60914387    -0.38840
O910        O  0.77134305  0.25465068  0.56819266    -0.38780
O911        O  0.65939329  0.35538699  0.73522929    -0.39480
O912        O  0.67889504  0.41328953  0.70323628    -0.39550
C913        C  0.74407120  0.37579577  0.26423368    -0.11830
C914        C  0.72166910  0.33743445  0.25322003     0.05170
C915        C  0.68021033  0.34069395  0.23404018    -0.07120
C916        C  0.66091870  0.38174232  0.23026801    -0.07860
C917        C  0.68226698  0.41963098  0.24411274    -0.02420
C918        C  0.72576455  0.41662869  0.25862623     0.04400
N919        N  0.75194818  0.45435514  0.26777217     0.66910
H920        H  0.77686946  0.37409868  0.27675675     0.15810
H921        H  0.62805315  0.38381043  0.21782569     0.15520
N922        N  0.65654556  0.30352449  0.21895752     0.74610
O923        O  0.77530727  0.45558609  0.29911948    -0.38840
O924        O  0.75864737  0.48214748  0.24090010    -0.38780
O925        O  0.65162311  0.27052091  0.24030738    -0.39480
O926        O  0.63532835  0.30586110  0.18647168    -0.39550
C927        C  0.76681318  0.19488119  0.26444895    -0.11830
C928        C  0.79037130  0.23158118  0.25194759     0.05170
C929        C  0.83552177  0.22717370  0.24129227    -0.07120
C930        C  0.85497864  0.18608797  0.24157443    -0.07860
C931        C  0.83060586  0.14893604  0.25140243    -0.02420
C932        C  0.78586798  0.15358990  0.26334259     0.04400
N933        N  0.75821004  0.11686509  0.27140218     0.66910
H934        H  0.73194370  0.19753000  0.27099721     0.15810
H935        H  0.88955393  0.18312633  0.23336530     0.15520
N936        N  0.86191364  0.26356129  0.22909076     0.74610
O937        O  0.73313232  0.11743435  0.30203534    -0.38840
O938        O  0.75155384  0.08888152  0.24386977    -0.38780
O939        O  0.85767393  0.29980430  0.24676339    -0.39480
O940        O  0.89354078  0.25824226  0.20442250    -0.39550
C941        C  0.78775361  0.30863684  0.32736232    -0.11830
C942        C  0.74822967  0.29293056  0.31064002     0.05170
C943        C  0.71138398  0.28722775  0.33665809    -0.07120
C944        C  0.71349839  0.30117254  0.37707171    -0.07860
C945        C  0.75141136  0.32139091  0.39219016    -0.02420
C946        C  0.78980385  0.32346356  0.36764494     0.04400
N947        N  0.83042657  0.34189358  0.38257020     0.66910
H948        H  0.81613295  0.31312756  0.30808714     0.15810
H949        H  0.68426481  0.29878289  0.39603478     0.15520
N950        N  0.67090212  0.26892700  0.32232013     0.74610
O951        O  0.85729748  0.35986817  0.35872806    -0.38840
O952        O  0.84150774  0.33689472  0.41880400    -0.38780
O953        O  0.67008774  0.22984909  0.31061268    -0.39480
O954        O  0.63488764  0.28795910  0.32997403    -0.39550
C955        C  0.72292764  0.23516908  0.18334014    -0.11830
C956        C  0.75321964  0.26761274  0.19487473     0.05170
C957        C  0.77846349  0.28823035  0.16434903    -0.07120
C958        C  0.77375457  0.27438411  0.12389656    -0.07860
C959        C  0.74502977  0.24048399  0.11321719    -0.02420
C960        C  0.71781815  0.22193975  0.14310535     0.04400
N961        N  0.68501489  0.18964221  0.13325505     0.66910
H962        H  0.70403522  0.21860163  0.20624726     0.15810
H963        H  0.79410295  0.28894433  0.10070842     0.15520
N964        N  0.81032260  0.32150375  0.17348966     0.74610
O965        O  0.67574686  0.16022040  0.15794463    -0.38840
O966        O  0.66114699  0.19376924  0.10254852    -0.38780
O967        O  0.84443092  0.32563436  0.15165537    -0.39480
O968        O  0.80188207  0.35033138  0.19974584    -0.39550
C969        C  0.63998412  0.57253117  0.99908065    -0.11830
C970        C  0.63759019  0.61478378  0.98487141     0.05170
C971        C  0.59668455  0.63136300  0.97218517    -0.07120
C972        C  0.55820555  0.60678157  0.97858617    -0.07860
C973        C  0.56002691  0.56678033  0.99795837    -0.02420
C974        C  0.60167507  0.54819901  0.00598188     0.04400
N975        N  0.60543326  0.50583681  0.02314136     0.66910
H976        H  0.67170728  0.55957949  0.00757768     0.15810
H977        H  0.52641451  0.62047685  0.97152663     0.15520
N978        N  0.59363831  0.67317895  0.95389342     0.74610
O979        O  0.63805614  0.49675793  0.04483127    -0.38840
O980        O  0.57829671  0.47620336  0.01400574    -0.38780
O981        O  0.62491415  0.68722691  0.93226786    -0.39480
O982        O  0.55801532  0.69425311  0.95581836    -0.39550
C983        C  0.89943382  0.63295469  0.02454996    -0.11830
C984        C  0.85915393  0.61397924  0.01294879     0.05170
C985        C  0.85843804  0.56992948  0.00065737    -0.07120
C986        C  0.89811594  0.54713809  0.99757780    -0.07860
C987        C  0.93894558  0.56715474  0.00541813    -0.02420
C988        C  0.93945981  0.61038566  0.02045196     0.04400
N989        N  0.97990650  0.63325716  0.02835916     0.66910
H990        H  0.90016291  0.66658630  0.03444804     0.15810
H991        H  0.89741825  0.51450578  0.98499114     0.15520
N992        N  0.81876379  0.54888445  0.98714815     0.74610
O993        O  0.01006855  0.63435663  0.00189888    -0.38840
O994        O  0.98255797  0.65820293  0.05883854    -0.38780
O995        O  0.79841179  0.56348424  0.95727989    -0.39480
O996        O  0.80967470  0.51125564  0.99906678    -0.39550
C997        C  0.77238697  0.93048368  0.25403445    -0.11830
C998        C  0.81699399  0.92311824  0.24495573     0.05170
C999        C  0.83106903  0.88033116  0.23632968    -0.07120
C1000       C  0.80032429  0.84614977  0.23784621    -0.07860
C1001       C  0.75619403  0.85328581  0.24977685    -0.02420
C1002       C  0.74243299  0.89632367  0.25776756     0.04400
N1003       N  0.69919462  0.90620278  0.27273434     0.66910
H1004       H  0.76101300  0.96305247  0.26093893     0.15810
H1005       H  0.81206647  0.81337588  0.23328397     0.15520
N1006       N  0.87629520  0.87060702  0.22709231     0.74610
O1007       O  0.69358644  0.91041789  0.31035723    -0.38840
O1008       O  0.67235563  0.92441551  0.24967618    -0.38780
O1009       O  0.90500746  0.87491047  0.25423648    -0.39480
O1010       O  0.88553565  0.84844065  0.19581233    -0.39550
C1011       C  0.72256682  0.70995738  0.26408872    -0.11830
C1012       C  0.69406348  0.74281425  0.25146083     0.05170
C1013       C  0.64882505  0.73280112  0.24649129    -0.07120
C1014       C  0.63365688  0.69068634  0.25275482    -0.07860
C1015       C  0.66269610  0.65709931  0.26161187    -0.02420
C1016       C  0.70774247  0.66701097  0.26842291     0.04400
N1017       N  0.73889038  0.63423358  0.27906527     0.66910
H1018       H  0.75710392  0.71741076  0.26895644     0.15810
H1019       H  0.59907949  0.68363790  0.24742196     0.15520
N1020       N  0.61786559  0.76362978  0.23228502     0.74610
O1021       O  0.77797847  0.63567182  0.26551426    -0.38840
O1022       O  0.72915472  0.60697416  0.30567440    -0.38780
O1023       O  0.61349403  0.76705419  0.19471409    -0.39480
O1024       O  0.58549259  0.77361730  0.25479083    -0.39550
C1025       C  0.76451214  0.75523876  0.18438457    -0.11830
C1026       C  0.72871574  0.78262730  0.19367658     0.05170
C1027       C  0.70440336  0.80048210  0.16154995    -0.07120
C1028       C  0.71355062  0.78596908  0.12180089    -0.07860
C1029       C  0.74603601  0.75484885  0.11357727    -0.02420
C1030       C  0.77373886  0.74112338  0.14481539     0.04400
N1031       N  0.81069485  0.71260280  0.13710788     0.66910
H1032       H  0.78451557  0.74330919  0.20859945     0.15810
H1033       H  0.69346986  0.79703690  0.09718975     0.15520
N1034       N  0.66963361  0.83163580  0.16826489     0.74610
O1035       O  0.82779744  0.69211597  0.16560924    -0.38840
O1036       O  0.82950722  0.71133796  0.10295793    -0.38780
O1037       O  0.66520541  0.85105410  0.20175982    -0.39480
O1038       O  0.64363368  0.84091415  0.14016053    -0.39550
C1039       C  0.67704426  0.83983803  0.74831379    -0.11830
C1040       C  0.72193775  0.84102088  0.75838465     0.05170
C1041       C  0.74004898  0.87996929  0.77486948    -0.07120
C1042       C  0.71356607  0.91739630  0.77595470    -0.07860
C1043       C  0.66999566  0.91694167  0.76171388    -0.02420
C1044       C  0.65070749  0.87692196  0.75028850     0.04400
N1045       N  0.60477561  0.87321368  0.74031094     0.66910
H1046       H  0.66259396  0.80982283  0.73742542     0.15810
H1047       H  0.72785106  0.94781818  0.78618973     0.15520
N1048       N  0.78484862  0.88312882  0.78930613     0.74610
O1049       O  0.59287387  0.84893134  0.71131805    -0.38840
O1050       O  0.57581210  0.88811182  0.76435990    -0.38780
O1051       O  0.81220754  0.85312238  0.78304708    -0.39480
O1052       O  0.79730944  0.91618226  0.80917767    -0.39550
C1053       C  0.81753654  0.72679894  0.72524000    -0.11830
C1054       C  0.77681365  0.72836059  0.74569898     0.05170
C1055       C  0.75621763  0.68913856  0.75724087    -0.07120
C1056       C  0.77947669  0.65026946  0.75278964    -0.07860
C1057       C  0.82283729  0.64945361  0.73765216    -0.02420
C1058       C  0.84134541  0.68799222  0.72209526     0.04400
N1059       N  0.88501301  0.68919765  0.70521538     0.66910
H1060       H  0.83327276  0.75659639  0.71589348     0.15810
H1061       H  0.76426894  0.62063537  0.76319856     0.15520
N1062       N  0.71272989  0.68852303  0.77533750     0.74610
O1063       O  0.89060295  0.70304789  0.66994416    -0.38840
O1064       O  0.91780591  0.68745642  0.72834050    -0.38780
O1065       O  0.68406477  0.71582749  0.76552089    -0.39480
O1066       O  0.70158966  0.65851878  0.79877801    -0.39550
C1067       C  0.79547207  0.74802604  0.87179611    -0.11830
C1068       C  0.75527371  0.75144537  0.89275247     0.05170
C1069       C  0.71816729  0.76817783  0.87253509    -0.07120
C1070       C  0.72147191  0.77718354  0.83114537    -0.07860
C1071       C  0.76118145  0.77098036  0.80954977    -0.02420
C1072       C  0.79908813  0.75757515  0.83090477     0.04400
N1073       N  0.84117069  0.75109950  0.81133150     0.66910
H1074       H  0.82444331  0.73624321  0.88701264     0.15810
H1075       H  0.69208568  0.78684950  0.81544810     0.15520
N1076       N  0.67664326  0.77487817  0.89286516     0.74610
O1077       O  0.85803130  0.78048808  0.79014818    -0.38840
O1078       O  0.86422192  0.71849709  0.81956059    -0.38780
O1079       O  0.67495434  0.79818275  0.92450820    -0.39480
O1080       O  0.64110354  0.76456564  0.87546182    -0.39550
C1081       C  0.87323675  0.99103699  0.52157848    -0.11830
C1082       C  0.87080084  0.94954486  0.50357219     0.05170
C1083       C  0.90890838  0.93154791  0.48542939    -0.07120
C1084       C  0.94778048  0.95587594  0.48442056    -0.07860
C1085       C  0.95008458  0.99821384  0.50040307    -0.02420
C1086       C  0.91230212  0.01613186  0.52023125     0.04400
N1087       N  0.91176311  0.05941771  0.53773732     0.66910
H1088       H  0.84386971  0.00440368  0.53584255     0.15810
H1089       H  0.97582991  0.94260316  0.46810840     0.15520
N1090       N  0.90797369  0.89037404  0.46464079     0.74610
O1091       O  0.88025834  0.07112252  0.56060396    -0.38840
O1092       O  0.94145250  0.08679205  0.52975281    -0.38780
O1093       O  0.88034064  0.88355077  0.43694042    -0.39480
O1094       O  0.93957231  0.86429097  0.46853561    -0.39550
C1095       C  0.63650765  0.99710096  0.48816570    -0.11830
C1096       C  0.63551406  0.95442188  0.50210117     0.05170
C1097       C  0.59493522  0.93680084  0.51570389    -0.07120
C1098       C  0.55667538  0.96187018  0.51459732    -0.07860
C1099       C  0.55791641  0.00492471  0.50194757    -0.02420
C1100       C  0.59845375  0.02297659  0.48833535     0.04400
N1101       N  0.60140358  0.06647700  0.47321500     0.66910
H1102       H  0.66733006  0.01048730  0.47708601     0.15810
H1103       H  0.52609056  0.94853381  0.52632976     0.15520
N1104       N  0.59218025  0.89476918  0.53324100     0.74610
O1105       O  0.63844170  0.08519838  0.47036294    -0.38840
O1106       O  0.56806741  0.08465466  0.45859240    -0.38780
O1107       O  0.61263486  0.88756010  0.56542764    -0.39480
O1108       O  0.56237304  0.86864994  0.52198560    -0.39550
C1109       C  0.74364871  0.79416437  0.62647987    -0.11830
C1110       C  0.76324849  0.83371913  0.61617629     0.05170
C1111       C  0.78397575  0.85896605  0.64633418    -0.07120
C1112       C  0.78266566  0.84561527  0.68620882    -0.07860
C1113       C  0.75911072  0.80845812  0.69762942    -0.02420
C1114       C  0.74037108  0.78175182  0.66700604     0.04400
N1115       N  0.71502387  0.74403808  0.67628420     0.66910
H1116       H  0.72763743  0.77454059  0.60341755     0.15810
H1117       H  0.79780149  0.86638195  0.70876632     0.15520
N1118       N  0.80517946  0.89919237  0.63727949     0.74610
O1119       O  0.67559581  0.74842785  0.68816865    -0.38840
O1120       O  0.72724674  0.70776193  0.66214867    -0.38780
O1121       O  0.78286787  0.93363363  0.63803581    -0.39480
O1122       O  0.84678685  0.90156885  0.63747998    -0.39550
C1123       C  0.69751443  0.82051731  0.37513634    -0.11830
C1124       C  0.73993033  0.82130300  0.39180176     0.05170
C1125       C  0.77669693  0.81071702  0.36723765    -0.07120
C1126       C  0.77049133  0.80428696  0.32574962    -0.07860
C1127       C  0.72892833  0.80945382  0.30791242    -0.02420
C1128       C  0.69131731  0.81537050  0.33325641     0.04400
N1129       N  0.64741416  0.81964176  0.31753834     0.66910
H1130       H  0.66942858  0.82846482  0.39433039     0.15810
H1131       H  0.79894429  0.79742730  0.30672904     0.15520
N1132       N  0.82045387  0.80754604  0.38366794     0.74610
O1133       O  0.61431556  0.81083170  0.33939455    -0.38840
O1134       O  0.64109283  0.83685433  0.28392633    -0.38780
O1135       O  0.82588901  0.79529220  0.41940161    -0.39480
O1136       O  0.85400972  0.81313075  0.36142447    -0.39550
loop_ 
_geom_bond_atom_site_label_1 
_geom_bond_atom_site_label_2 
_geom_bond_distance 
_geom_bond_site_symmetry_2 
_ccdc_geom_bond_type 
In1           O3   2.231       .  S
In1           O4   2.237       .  S
In1          O12   2.242       .  S
In1           O6   2.264       .  S
In1           O8   2.268       .  S
In1           O9   2.246       .  S
In1          O10   2.212       .  S
In1          O13   2.230       .  S
C2            O8   1.262       .  A
C2           O10   1.256       .  A
C2         C1110   1.473       .  S
O3           C11   1.265       .  A
O4           C11   1.264       .  A
C5           O12   1.258       .  A
C5            O6   1.258       .  A
C5         C1124   1.474       .  S
C7            O9   1.261       .  A
C7           O13   1.258       .  A
C7         C1096   1.482       .  S
C11        C1082   1.478       .  S
C14          C15   1.367       .  D
C14        C1040   1.493       .  S
C14        C1113   1.497       .  S
C15        C1054   1.491       .  S
C15        C1071   1.503       .  S
C16          C17   1.369       .  D
C16        C1012   1.497       .  S
C16        C1026   1.499       .  S
C17        C1001   1.498       .  S
C17        C1127   1.496       .  S
In18         O20   2.242       .  S
In18         O21   2.235       .  S
In18         O29   2.234       .  S
In18         O23   2.266       .  S
In18         O25   2.258   1_554  S
In18         O26   2.240   1_554  S
In18         O27   2.239   1_554  S
In18         O30   2.238       .  S
C19          O25   1.256       .  A
C19          O27   1.260       .  A
C19        C1068   1.486       .  S
O20          C28   1.265       .  A
O21          C28   1.262       .  A
C22          O29   1.256       .  A
C22          O23   1.259       .  A
C22        C1029   1.471       .  S
C24          O26   1.260       .  A
C24          O30   1.261   1_556  A
C24         C970   1.468       .  S
C28         C984   1.480       .  S
C31          C32   1.370       .  D
C31         C914   1.496       .  S
C31         C942   1.503       .  S
C32         C928   1.492       .  S
C32         C956   1.498       .  S
C33          C34   1.365       .  D
C33         C858   1.489       .  S
C33         C900   1.494       .  S
C34         C872   1.494       .  S
C34         C886   1.504       .  S
In35         O37   2.260       .  S
In35         O38   2.247       .  S
In35         O46   2.220       .  S
In35         O40   2.279       .  S
In35         O42   2.265       .  S
In35         O43   2.242       .  S
In35         O44   2.232       .  S
In35         O47   2.244       .  S
C36          O42   1.263       .  A
C36          O44   1.257       .  A
C36         C945   1.475       .  S
O37          C45   1.261       .  A
O38          C45   1.260       .  A
C39          O46   1.258       .  A
C39          O40   1.262       .  A
C39         C903   1.487       .  S
C41          O43   1.261       .  A
C41          O47   1.263       .  A
C41         C844   1.483       .  S
C45         C830   1.489       .  S
In48         O50   2.259   1_556  S
In48         O51   2.231       .  S
In48         O59   2.239       .  S
In48         O53   2.258       .  S
In48         O55   2.261   1_556  S
In48         O56   2.236       .  S
In48         O57   2.229   1_556  S
In48         O60   2.260       .  S
C49          O55   1.261       .  A
C49          O57   1.258       .  A
C49         C959   1.476       .  S
O50          C58   1.261       .  A
O51          C58   1.261   1_556  A
C52          O59   1.258       .  A
C52          O53   1.260       .  A
C52         C889   1.469       .  S
C54          O56   1.258       .  A
C54          O60   1.261       .  A
C54         C816   1.485       .  S
C58         C802   1.487       .  S
In61         O63   2.239       .  S
In61         O64   2.231       .  S
In61         O72   2.226       .  S
In61         O66   2.262       .  S
In61         O68   2.270       .  S
In61         O69   2.253       .  S
In61         O70   2.232       .  S
In61         O73   2.241       .  S
C62          O68   1.260       .  A
C62          O70   1.256       .  A
C62         C774   1.479       .  S
O63          C71   1.262       .  A
O64          C71   1.265       .  A
C65          O72   1.259       .  A
C65          O66   1.262       .  A
C65         C788   1.474       .  S
C67          O69   1.259       .  A
C67          O73   1.261       .  A
C67         C861   1.485       .  S
C71        C1057   1.482       .  S
In74         O76   2.253       .  S
In74         O77   2.233       .  S
In74         O85   2.226       .  S
In74         O79   2.262       .  S
In74         O81   2.260       .  S
In74         O82   2.241       .  S
In74         O83   2.220       .  S
In74         O86   2.243       .  S
C75          O81   1.263       .  A
C75          O83   1.259       .  A
C75         C746   1.475       .  S
O76          C84   1.263       .  A
O77          C84   1.260       .  A
C78          O85   1.258       .  A
C78          O79   1.263       .  A
C78         C763   1.479       .  S
C80          O82   1.259       .  A
C80          O86   1.260       .  A
C80         C718   1.476       .  S
C84         C732   1.485       .  S
C87          C88   1.370   1_656  D
C87         C777   1.508       .  S
C87         C987   1.496   1_556  S
C88         C707   1.493   1_554  S
C88         C749   1.496       .  S
C89          C90   1.371   1_455  D
C89         C690   1.503       .  S
C89         C760   1.507       .  S
C90         C791   1.507       .  S
C90         C847   1.502       .  S
C91          C92   1.363   1_556  D
C91         C651   1.489   1_556  S
C91         C662   1.496       .  S
C92         C676   1.501       .  S
C92         C973   1.490   1_554  S
In93         O95   2.264       .  S
In93         O96   2.223       .  S
In93        O104   2.203       .  S
In93         O98   2.278       .  S
In93        O100   2.268       .  S
In93        O101   2.230       .  S
In93        O102   2.219       .  S
In93        O105   2.264       .  S
C94         O100   1.263       .  A
C94         O102   1.257       .  A
C94         C665   1.475       .  S
O95         C103   1.263       .  A
O96         C103   1.259       .  A
C97         O104   1.259       .  A
C97          O98   1.265       .  A
C97         C634   1.488       .  S
C99         O101   1.258       .  A
C99         O105   1.263       .  A
C99         C606   1.486       .  S
C103        C620   1.478       .  S
C106        C107   1.382       .  D
C106        C578   1.509       .  S
C106        C637   1.540       .  S
C107        C592   1.500       .  S
C107        C833   1.501       .  S
In108       O110   2.247       .  S
In108       O111   2.239       .  S
In108       O119   2.224       .  S
In108       O113   2.258       .  S
In108       O115   2.257       .  S
In108       O116   2.251       .  S
In108       O117   2.228       .  S
In108       O120   2.226       .  S
C109        O115   1.261       .  A
C109        O117   1.257       .  A
C109        C595   1.473       .  S
O110        C118   1.259       .  A
O111        C118   1.259       .  A
C112        O119   1.260       .  A
C112        O113   1.262       .  A
C112        C679   1.472       .  S
C114        O116   1.264       .  A
C114        O120   1.262       .  A
C114       C1015   1.480       .  S
C118        C917   1.483       .  S
C121        C122   1.369       .  D
C121        C550   1.499       .  S
C121        C609   1.493       .  S
C122        C536   1.497       .  S
C122        C564   1.502       .  S
In123       O125   2.262       .  S
In123       O126   2.220       .  S
In123       O134   2.236       .  S
In123       O128   2.271       .  S
In123       O130   2.287       .  S
In123       O131   2.234       .  S
In123       O132   2.215       .  S
In123       O135   2.272       .  S
C124        O130   1.262       .  A
C124        O132   1.257       .  A
C124        C567   1.487       .  S
O125        C133   1.264       .  A
O126        C133   1.260       .  A
C127        O134   1.257       .  A
C127        O128   1.263       .  A
C127        C522   1.476       .  S
C129        O131   1.257       .  A
C129        O135   1.262       .  A
C129        C511   1.486       .  S
C133        C497   1.481       .  S
C136        C137   1.369       .  D
C136        C480   1.502       .  S
C136        C721   1.495       .  S
C137        C466   1.491       .  S
C137        C525   1.500       .  S
In138       O140   2.246   1_554  S
In138       O141   2.241       .  S
In138       O149   2.241   1_554  S
In138       O143   2.259   1_554  S
In138       O145   2.263       .  S
In138       O146   2.238   1_554  S
In138       O147   2.235       .  S
In138       O150   2.249       .  S
C139        O145   1.262       .  A
C139        O147   1.258       .  A
C139        C483   1.481       .  S
O140        C148   1.260   1_556  A
O141        C148   1.259       .  A
C142        O149   1.259       .  A
C142        O143   1.261       .  A
C142        C553   1.476       .  S
C144        O146   1.260   1_554  A
C144        O150   1.262       .  A
C144        C704   1.486   1_554  S
C148        C648   1.483       .  S
In151       O153   2.244   1_545  S
In151       O154   2.240   1_545  S
In151       O162   2.236       .  S
In151       O156   2.260       .  S
In151       O158   2.258       .  S
In151       O159   2.251       .  S
In151       O160   2.244       .  S
In151       O163   2.234       .  S
C152        O158   1.261       .  A
C152        O160   1.256       .  A
C152        C441   1.473       .  S
O153        C161   1.263       .  A
O154        C161   1.262       .  A
C155        O162   1.258       .  A
C155        O156   1.262       .  A
C155        C452   1.486       .  S
C157        O159   1.261       .  A
C157        O163   1.260       .  A
C157        C875   1.475       .  S
C161       C1043   1.485       .  S
In164       O166   2.258       .  S
In164       O167   2.222       .  S
In164       O175   2.214       .  S
In164       O169   2.276       .  S
In164       O171   2.262       .  S
In164       O172   2.231   1_545  S
In164       O173   2.210       .  S
In164       O176   2.253   1_545  S
C165        O171   1.264       .  A
C165        O173   1.258       .  A
C165        C427   1.478       .  S
O166        C174   1.262       .  A
O167        C174   1.261       .  A
C168        O175   1.259       .  A
C168        O169   1.263       .  A
C168        C410   1.478       .  S
C170        O172   1.260       .  A
C170        O176   1.262       .  A
C170        C399   1.484       .  S
C174        C469   1.486       .  S
C177        C178   1.368   1_556  D
C177        C438   1.500       .  S
C177        C805   1.488   1_556  S
C178        C382   1.495   1_554  S
C178        C413   1.509       .  S
C179        C180   1.375       .  D
C179        C424   1.540       .  S
C179        C508   1.497       .  S
C180        C455   1.506       .  S
C180       C1099   1.476       .  S
C181        C182   1.368       .  D
C181        C354   1.496       .  S
C181        C735   1.495       .  S
C182        C368   1.497       .  S
C182        C396   1.492       .  S
In183       O185   2.236       .  S
In183       O186   2.251       .  S
In183       O194   2.204       .  S
In183       O188   2.270       .  S
In183       O190   2.262       .  S
In183       O191   2.238       .  S
In183       O192   2.225       .  S
In183       O195   2.240       .  S
C184        O190   1.262       .  A
C184        O192   1.258       .  A
C184        C340   1.472       .  S
O185        C193   1.261       .  A
O186        C193   1.261       .  A
C187        O194   1.258       .  A
C187        O188   1.263       .  A
C187        C357   1.471       .  S
C189        O191   1.263       .  A
C189        O195   1.263       .  A
C189        C581   1.482       .  S
C193        C693   1.483       .  S
C196        C197   1.367       .  D
C196        C343   1.497       .  S
C196        C623   1.494       .  S
C197        C312   1.495       .  S
C197        C326   1.501       .  S
In198       O200   2.245       .  S
In198       O201   2.239       .  S
In198       O209   2.214       .  S
In198       O203   2.270       .  S
In198       O205   2.261   1_556  S
In198       O206   2.246   1_556  S
In198       O207   2.218   1_556  S
In198       O210   2.236       .  S
C199        O205   1.261       .  A
C199        O207   1.258       .  A
C199        C371   1.466       .  S
O200        C208   1.262       .  A
O201        C208   1.262       .  A
C202        O209   1.259       .  A
C202        O203   1.263       .  A
C202        C329   1.477       .  S
C204        O206   1.260       .  A
C204        O210   1.260   1_554  A
C204        C298   1.477       .  S
C208        C385   1.480       .  S
In211       O213   2.227   1_545  S
In211       O214   2.264   1_545  S
In211       O222   2.228       .  S
In211       O216   2.260       .  S
In211       O218   2.261       .  S
In211       O219   2.247       .  S
In211       O220   2.220       .  S
In211       O223   2.229       .  S
C212        O218   1.262       .  A
C212        O220   1.258       .  A
C212        C270   1.475       .  S
O213        C221   1.259       .  A
O214        C221   1.261       .  A
C215        O222   1.259       .  A
C215        O216   1.260       .  A
C215        C287   1.471       .  S
C217        O219   1.265       .  A
C217        O223   1.263       .  A
C217        C539   1.480       .  S
C221        C315   1.485       .  S
In224       O226   2.235       .  S
In224       O227   2.246       .  S
In224       O235   2.239       .  S
In224       O229   2.260       .  S
In224       O231   2.287       .  S
In224       O232   2.220   1_545  S
In224       O233   2.208       .  S
In224       O236   2.253   1_545  S
C225        O231   1.264       .  A
C225        O233   1.252       .  A
C225        C256   1.485       .  S
O226        C234   1.260       .  A
O227        C234   1.259       .  A
C228        O235   1.257       .  A
C228        O229   1.261       .  A
C228        C245   1.474       .  S
C230        O232   1.262       .  A
C230        O236   1.264       .  A
C230        C998   1.479       .  S
C234        C931   1.483       .  S
C237        C238   1.367   1_654  D
C237        C242   1.498       .  S
C237        C819   1.494   1_554  S
C238        C273   1.499       .  S
C238        C301   1.495       .  S
C239        C240   1.364   1_455  D
C239        C284   1.500       .  S
C239        C494   1.493       .  S
C240        C259   1.494       .  S
C240       C1085   1.490   1_545  S
C241        C242   1.406       .  A
C241        C246   1.398       .  A
C241        H248   1.080       .  S
C242        C243   1.419       .  A
C243        C244   1.405   1_545  A
C243        N250   1.435   1_545  S
C244        C245   1.403   1_565  A
C244        H249   1.084       .  S
C245        C246   1.409       .  A
C246        N247   1.436       .  S
N247        O251   1.262       .  A
N247        O252   1.262       .  A
N250        O253   1.263       .  A
N250        O254   1.260       .  A
C255        C256   1.406       .  A
C255        C260   1.407   1_655  A
C255        H262   1.083   1_645  S
C256        C257   1.415       .  A
C257        C258   1.393       .  A
C257        N264   1.432       .  S
C258        C259   1.401       .  A
C258        H263   1.080       .  S
C259        C260   1.412   1_655  A
C260        N261   1.427   1_545  S
N261        O265   1.261       .  A
N261        O266   1.262   1_565  A
N264        O267   1.262       .  A
N264        O268   1.262       .  A
C269        C270   1.402       .  A
C269        C274   1.407   1_455  A
C269        H276   1.084   1_455  S
C270        C271   1.407       .  A
C271        C272   1.392       .  A
C271        N278   1.430       .  S
C272        C273   1.406       .  A
C272        H277   1.083       .  S
C273        C274   1.419   1_455  A
C274        N275   1.430       .  S
N275        O279   1.262       .  A
N275        O280   1.260   1_545  A
N278        O281   1.262       .  A
N278        O282   1.262       .  A
C283        C284   1.408       .  A
C283        C288   1.396       .  A
C283        H290   1.082       .  S
C284        C285   1.419   1_545  A
C285        C286   1.409       .  A
C285        N292   1.437       .  S
C286        C287   1.403   1_565  A
C286        H291   1.084       .  S
C287        C288   1.407       .  A
C288        N289   1.441       .  S
N289        O293   1.263       .  A
N289        O294   1.263       .  A
N292        O295   1.260       .  A
N292        O296   1.263   1_455  A
C297        C298   1.405       .  A
C297        C302   1.407   1_565  A
C297        H304   1.084       .  S
C298        C299   1.411   1_554  A
C299        C300   1.395       .  A
C299        N306   1.436       .  S
C300        C301   1.405   1_565  A
C300        H305   1.082       .  S
C301        C302   1.418   1_556  A
C302        N303   1.436       .  S
N303        O307   1.263       .  A
N303        O308   1.261       .  A
N306        O309   1.262       .  A
N306        O310   1.263       .  A
C311        C312   1.405       .  A
C311        C316   1.409       .  A
C311        H318   1.083       .  S
C312        C313   1.411       .  A
C313        C314   1.393       .  A
C313        N320   1.430       .  S
C314        C315   1.402       .  A
C314        H319   1.084       .  S
C315        C316   1.418       .  A
C316        N317   1.436       .  S
N317        O321   1.263       .  A
N317        O322   1.262       .  A
N320        O323   1.261       .  A
N320        O324   1.262       .  A
C325        C326   1.406       .  A
C325        C330   1.392       .  A
C325        H332   1.082       .  S
C326        C327   1.420       .  A
C327        C328   1.412       .  A
C327        N334   1.436       .  S
C328        C329   1.406       .  A
C328        H333   1.083       .  S
C329        C330   1.410       .  A
C330        N331   1.439       .  S
N331        O335   1.263       .  A
N331        O336   1.263       .  A
N334        O337   1.263       .  A
N334        O338   1.261       .  A
C339        C340   1.402       .  A
C339        C344   1.407       .  A
C339        H346   1.084       .  S
C340        C341   1.411       .  A
C341        C342   1.400       .  A
C341        N348   1.442       .  S
C342        C343   1.405       .  A
C342        H347   1.082       .  S
C343        C344   1.418       .  A
C344        N345   1.436       .  S
N345        O349   1.263       .  A
N345        O350   1.261       .  A
N348        O351   1.263       .  A
N348        O352   1.263       .  A
C353        C354   1.411       .  A
C353        C358   1.412       .  A
C353        H360   1.083       .  S
C354        C355   1.414       .  A
C355        C356   1.391       .  A
C355        N362   1.433       .  S
C356        C357   1.397       .  A
C356        H361   1.085       .  S
C357        C358   1.414       .  A
C358        N359   1.441       .  S
N359        O363   1.263       .  A
N359        O364   1.263       .  A
N362        O365   1.260       .  A
N362        O366   1.263       .  A
C367        C368   1.407       .  A
C367        C372   1.413       .  A
C367        H374   1.082       .  S
C368        C369   1.414       .  A
C369        C370   1.390       .  A
C369        N376   1.429       .  S
C370        C371   1.394       .  A
C370        H375   1.085       .  S
C371        C372   1.419       .  A
C372        N373   1.446       .  S
N373        O377   1.263       .  A
N373        O378   1.262       .  A
N376        O379   1.262       .  A
N376        O380   1.262       .  A
C381        C382   1.405   1_564  A
C381        C386   1.399       .  A
C381        H388   1.084       .  S
C382        C383   1.418       .  A
C383        C384   1.407   1_545  A
C383        N390   1.438       .  S
C384        C385   1.404       .  A
C384        H389   1.084   1_565  S
C385        C386   1.411   1_556  A
C386        N387   1.434       .  S
N387        O391   1.262       .  A
N387        O392   1.262       .  A
N390        O393   1.259       .  A
N390        O394   1.263       .  A
C395        C396   1.404       .  A
C395        C400   1.398       .  A
C395        H402   1.083       .  S
C396        C397   1.413       .  A
C397        C398   1.405       .  A
C397        N404   1.433       .  S
C398        C399   1.406       .  A
C398        H403   1.083       .  S
C399        C400   1.414       .  A
C400        N401   1.436       .  S
N401        O405   1.263       .  A
N401        O406   1.263       .  A
N404        O407   1.260       .  A
N404        O408   1.262       .  A
C409        C410   1.397       .  A
C409        C414   1.392       .  A
C409        H416   1.085       .  S
C410        C411   1.415       .  A
C411        C412   1.415       .  A
C411        N418   1.439       .  S
C412        C413   1.412       .  A
C412        H417   1.077       .  S
C413        C414   1.414       .  A
C414        N415   1.428       .  S
N415        O419   1.263       .  A
N415        O420   1.262       .  A
N418        O421   1.262   1_545  A
N418        O422   1.263       .  A
C423        C424   1.414       .  A
C423        C428   1.390       .  A
C423        H430   1.075       .  S
C424        C425   1.431       .  A
C425        C426   1.411       .  A
C425        N432   1.428       .  S
C426        C427   1.398       .  A
C426        H431   1.084       .  S
C427        C428   1.405       .  A
C428        N429   1.431       .  S
N429        O433   1.262   1_545  A
N429        O434   1.262       .  A
N432        O435   1.262   1_545  A
N432        O436   1.263       .  A
C437        C438   1.406       .  A
C437        C442   1.409       .  A
C437        H444   1.081   1_545  S
C438        C439   1.419       .  A
C439        C440   1.396       .  A
C439        N446   1.430       .  S
C440        C441   1.395       .  A
C440        H445   1.085       .  S
C441        C442   1.416       .  A
C442        N443   1.441   1_545  S
N443        O447   1.263       .  A
N443        O448   1.262       .  A
N446        O449   1.261       .  A
N446        O450   1.262       .  A
C451        C452   1.405       .  A
C451        C456   1.405       .  A
C451        H458   1.083       .  S
C452        C453   1.411       .  A
C453        C454   1.403       .  A
C453        N460   1.435   1_545  S
C454        C455   1.407       .  A
C454        H459   1.074   1_545  S
C455        C456   1.415       .  A
C456        N457   1.433       .  S
N457        O461   1.261       .  A
N457        O462   1.263       .  A
N460        O463   1.263   1_565  A
N460        O464   1.262       .  A
C465        C466   1.405       .  A
C465        C470   1.406       .  A
C465        H472   1.084       .  S
C466        C467   1.415       .  A
C467        C468   1.398       .  A
C467        N474   1.438       .  S
C468        C469   1.403       .  A
C468        H473   1.083       .  S
C469        C470   1.416       .  A
C470        N471   1.433       .  S
N471        O475   1.262       .  A
N471        O476   1.262       .  A
N474        O477   1.260       .  A
N474        O478   1.263       .  A
C479        C480   1.405       .  A
C479        C484   1.401       .  A
C479        H486   1.080       .  S
C480        C481   1.414       .  A
C481        C482   1.404       .  A
C481        N488   1.425       .  S
C482        C483   1.402       .  A
C482        H487   1.084       .  S
C483        C484   1.414       .  A
C484        N485   1.439       .  S
N485        O489   1.263       .  A
N485        O490   1.263       .  A
N488        O491   1.262       .  A
N488        O492   1.262       .  A
C493        C494   1.406       .  A
C493        C498   1.408       .  A
C493        H500   1.083       .  S
C494        C495   1.411       .  A
C495        C496   1.394       .  A
C495        N502   1.431   1_545  S
C496        C497   1.401       .  A
C496        H501   1.084       .  S
C497        C498   1.415       .  A
C498        N499   1.432       .  S
N499        O503   1.262       .  A
N499        O504   1.262       .  A
N502        O505   1.261       .  A
N502        O506   1.262       .  A
C507        C508   1.403       .  A
C507        C512   1.399       .  A
C507        H514   1.083       .  S
C508        C509   1.421       .  A
C509        C510   1.406       .  A
C509        N516   1.443       .  S
C510        C511   1.407       .  A
C510        H515   1.083       .  S
C511        C512   1.410       .  A
C512        N513   1.429       .  S
N513        O517   1.262       .  A
N513        O518   1.261       .  A
N516        O519   1.263   1_545  A
N516        O520   1.263       .  A
C521        C522   1.404       .  A
C521        C526   1.410       .  A
C521        H528   1.084       .  S
C522        C523   1.410       .  A
C523        C524   1.402       .  A
C523        N530   1.440       .  S
C524        C525   1.409       .  A
C524        H529   1.082       .  S
C525        C526   1.418       .  A
C526        N527   1.440       .  S
N527        O531   1.263       .  A
N527        O532   1.261       .  A
N530        O533   1.261       .  A
N530        O534   1.263       .  A
C535        C536   1.406       .  A
C535        C540   1.394       .  A
C535        H542   1.083       .  S
C536        C537   1.422       .  A
C537        C538   1.412       .  A
C537        N544   1.441       .  S
C538        C539   1.405       .  A
C538        H543   1.083       .  S
C539        C540   1.408       .  A
C540        N541   1.433       .  S
N541        O545   1.262       .  A
N541        O546   1.262       .  A
N544        O547   1.259       .  A
N544        O548   1.263       .  A
C549        C550   1.405       .  A
C549        C554   1.402       .  A
C549        H556   1.075       .  S
C550        C551   1.422       .  A
C551        C552   1.408       .  A
C551        N558   1.442       .  S
C552        C553   1.401       .  A
C552        H557   1.084       .  S
C553        C554   1.410       .  A
C554        N555   1.439       .  S
N555        O559   1.263       .  A
N555        O560   1.262       .  A
N558        O561   1.260       .  A
N558        O562   1.263       .  A
C563        C564   1.410       .  A
C563        C568   1.413       .  A
C563        H570   1.082       .  S
C564        C565   1.413       .  A
C565        C566   1.393       .  A
C565        N572   1.429       .  S
C566        C567   1.401       .  A
C566        H571   1.084       .  S
C567        C568   1.416       .  A
C568        N569   1.434       .  S
N569        O573   1.263       .  A
N569        O574   1.262       .  A
N572        O575   1.262       .  A
N572        O576   1.261       .  A
C577        C578   1.406       .  A
C577        C582   1.402       .  A
C577        H584   1.073       .  S
C578        C579   1.411       .  A
C579        C580   1.402       .  A
C579        N586   1.429       .  S
C580        C581   1.403       .  A
C580        H585   1.084       .  S
C581        C582   1.412       .  A
C582        N583   1.431       .  S
N583        O587   1.262       .  A
N583        O588   1.262       .  A
N586        O589   1.261       .  A
N586        O590   1.262       .  A
C591        C592   1.405       .  A
C591        C596   1.396       .  A
C591        H598   1.078       .  S
C592        C593   1.428       .  A
C593        C594   1.409       .  A
C593        N600   1.443       .  S
C594        C595   1.398       .  A
C594        H599   1.084       .  S
C595        C596   1.407       .  A
C596        N597   1.434       .  S
N597        O601   1.262       .  A
N597        O602   1.262       .  A
N600        O603   1.263       .  A
N600        O604   1.260       .  A
C605        C606   1.405       .  A
C605        C610   1.403       .  A
C605        H612   1.083       .  S
C606        C607   1.417       .  A
C607        C608   1.401       .  A
C607        N614   1.436       .  S
C608        C609   1.402       .  A
C608        H613   1.079       .  S
C609        C610   1.409       .  A
C610        N611   1.427       .  S
N611        O615   1.261       .  A
N611        O616   1.261       .  A
N614        O617   1.263       .  A
N614        O618   1.263       .  A
C619        C620   1.406       .  A
C619        C624   1.412       .  A
C619        H626   1.083       .  S
C620        C621   1.411       .  A
C621        C622   1.393       .  A
C621        N628   1.437       .  S
C622        C623   1.404       .  A
C622        H627   1.081       .  S
C623        C624   1.419       .  A
C624        N625   1.439       .  S
N625        O629   1.263       .  A
N625        O630   1.262       .  A
N628        O631   1.262       .  A
N628        O632   1.263       .  A
C633        C634   1.394       .  A
C633        C638   1.393       .  A
C633        H640   1.085       .  S
C634        C635   1.411       .  A
C635        C636   1.413       .  A
C635        N642   1.436       .  S
C636        C637   1.420       .  A
C636        H641   1.071       .  S
C637        C638   1.429       .  A
C638        N639   1.428       .  S
N639        O643   1.262       .  A
N639        O644   1.263       .  A
N642        O645   1.262       .  A
N642        O646   1.263       .  A
C647        C648   1.406       .  A
C647        C652   1.405       .  A
C647        H654   1.083       .  S
C648        C649   1.411       .  A
C649        C650   1.396       .  A
C649        N656   1.430   1_554  S
C650        C651   1.401       .  A
C650        H655   1.080   1_554  S
C651        C652   1.415       .  A
C652        N653   1.438       .  S
N653        O657   1.263       .  A
N653        O658   1.260       .  A
N656        O659   1.262       .  A
N656        O660   1.262   1_556  A
C661        C662   1.402       .  A
C661        C666   1.399       .  A
C661        H668   1.081       .  S
C662        C663   1.416       .  A
C663        C664   1.404       .  A
C663        N670   1.428       .  S
C664        C665   1.401       .  A
C664        H669   1.084       .  S
C665        C666   1.414       .  A
C666        N667   1.440       .  S
N667        O671   1.263       .  A
N667        O672   1.263       .  A
N670        O673   1.261       .  A
N670        O674   1.262       .  A
C675        C676   1.407       .  A
C675        C680   1.408       .  A
C675        H682   1.081       .  S
C676        C677   1.420       .  A
C677        C678   1.396       .  A
C677        N684   1.438       .  S
C678        C679   1.396       .  A
C678        H683   1.084       .  S
C679        C680   1.415       .  A
C680        N681   1.438       .  S
N681        O685   1.263       .  A
N681        O686   1.262       .  A
N684        O687   1.262       .  A
N684        O688   1.263       .  A
C689        C690   1.406       .  A
C689        C694   1.401       .  A
C689        H696   1.078       .  S
C690        C691   1.416       .  A
C691        C692   1.404       .  A
C691        N698   1.435       .  S
C692        C693   1.403       .  A
C692        H697   1.083       .  S
C693        C694   1.412       .  A
C694        N695   1.434       .  S
N695        O699   1.262       .  A
N695        O700   1.262       .  A
N698        O701   1.261   1_455  A
N698        O702   1.263       .  A
C703        C704   1.406       .  A
C703        C708   1.407       .  A
C703        H710   1.083       .  S
C704        C705   1.411   1_556  A
C705        C706   1.399       .  A
C705        N712   1.433       .  S
C706        C707   1.406   1_554  A
C706        H711   1.081       .  S
C707        C708   1.418       .  A
C708        N709   1.438       .  S
N709        O713   1.263       .  A
N709        O714   1.260       .  A
N712        O715   1.263       .  A
N712        O716   1.262       .  A
C717        C718   1.404       .  A
C717        C722   1.404       .  A
C717        H724   1.084       .  S
C718        C719   1.410       .  A
C719        C720   1.398       .  A
C719        N726   1.438       .  S
C720        C721   1.407       .  A
C720        H725   1.082       .  S
C721        C722   1.415       .  A
C722        N723   1.432       .  S
N723        O727   1.261       .  A
N723        O728   1.263       .  A
N726        O729   1.263       .  A
N726        O730   1.262       .  A
C731        C732   1.406       .  A
C731        C736   1.408       .  A
C731        H738   1.083       .  S
C732        C733   1.411       .  A
C733        C734   1.399       .  A
C733        N740   1.434       .  S
C734        C735   1.406       .  A
C734        H739   1.084       .  S
C735        C736   1.419       .  A
C736        N737   1.443       .  S
N737        O741   1.263       .  A
N737        O742   1.259       .  A
N740        O743   1.262       .  A
N740        O744   1.262       .  A
C745        C746   1.400       .  A
C745        C750   1.413   1_455  A
C745        H752   1.083   1_455  S
C746        C747   1.404       .  A
C747        C748   1.392       .  A
C747        N754   1.431       .  S
C748        C749   1.405       .  A
C748        H753   1.081       .  S
C749        C750   1.428   1_455  A
C750        N751   1.446       .  S
N751        O755   1.263       .  A
N751        O756   1.259       .  A
N754        O757   1.262       .  A
N754        O758   1.262       .  A
C759        C760   1.407       .  A
C759        C764   1.399       .  A
C759        H766   1.078       .  S
C760        C761   1.422   1_455  A
C761        C762   1.406   1_655  A
C761        N768   1.430       .  S
C762        C763   1.400       .  A
C762        H767   1.084   1_455  S
C763        C764   1.412       .  A
C764        N765   1.439       .  S
N765        O769   1.263       .  A
N765        O770   1.263       .  A
N768        O771   1.258       .  A
N768        O772   1.263       .  A
C773        C774   1.405       .  A
C773        C778   1.410       .  A
C773        H780   1.084       .  S
C774        C775   1.406       .  A
C775        C776   1.393       .  A
C775        N782   1.431       .  S
C776        C777   1.410       .  A
C776        H781   1.082       .  S
C777        C778   1.419       .  A
C778        N779   1.430       .  S
N779        O783   1.261       .  A
N779        O784   1.263   1_655  A
N782        O785   1.262       .  A
N782        O786   1.262       .  A
C787        C788   1.400       .  A
C787        C792   1.408   1_655  A
C787        H794   1.084   1_655  S
C788        C789   1.410       .  A
C789        C790   1.397       .  A
C789        N796   1.440       .  S
C790        C791   1.407       .  A
C790        H795   1.078       .  S
C791        C792   1.422   1_655  A
C792        N793   1.432       .  S
N793        O797   1.263       .  A
N793        O798   1.259       .  A
N796        O799   1.262       .  A
N796        O800   1.263       .  A
C801        C802   1.403       .  A
C801        C806   1.399   1_554  A
C801        H808   1.083   1_554  S
C802        C803   1.418       .  A
C803        C804   1.407       .  A
C803        N810   1.433       .  S
C804        C805   1.401       .  A
C804        H809   1.084       .  S
C805        C806   1.415   1_554  A
C806        N807   1.442       .  S
N807        O811   1.263   1_545  A
N807        O812   1.262   1_546  A
N810        O813   1.262   1_554  A
N810        O814   1.262       .  A
C815        C816   1.405       .  A
C815        C820   1.408       .  A
C815        H822   1.083       .  S
C816        C817   1.413       .  A
C817        C818   1.398       .  A
C817        N824   1.437       .  S
C818        C819   1.403       .  A
C818        H823   1.080       .  S
C819        C820   1.419       .  A
C820        N821   1.439       .  S
N821        O825   1.263   1_556  A
N821        O826   1.260   1_655  A
N824        O827   1.263       .  A
N824        O828   1.263       .  A
C829        C830   1.402       .  A
C829        C834   1.406       .  A
C829        H836   1.083       .  S
C830        C831   1.414       .  A
C831        C832   1.404       .  A
C831        N838   1.435       .  S
C832        C833   1.404       .  A
C832        H837   1.076       .  S
C833        C834   1.425       .  A
C834        N835   1.443       .  S
N835        O839   1.263       .  A
N835        O840   1.260       .  A
N838        O841   1.262       .  A
N838        O842   1.263       .  A
C843        C844   1.403       .  A
C843        C848   1.404       .  A
C843        H850   1.083       .  S
C844        C845   1.414       .  A
C845        C846   1.401       .  A
C845        N852   1.435       .  S
C846        C847   1.405       .  A
C846        H851   1.079       .  S
C847        C848   1.414       .  A
C848        N849   1.434       .  S
N849        O853   1.263       .  A
N849        O854   1.261   1_655  A
N852        O855   1.262       .  A
N852        O856   1.263       .  A
C857        C858   1.402       .  A
C857        C862   1.406       .  A
C857        H864   1.082       .  S
C858        C859   1.416       .  A
C859        C860   1.401       .  A
C859        N866   1.442       .  S
C860        C861   1.403       .  A
C860        H865   1.083       .  S
C861        C862   1.418       .  A
C862        N863   1.436       .  S
N863        O867   1.263       .  A
N863        O868   1.262       .  A
N866        O869   1.262       .  A
N866        O870   1.263       .  A
C871        C872   1.408       .  A
C871        C876   1.403       .  A
C871        H878   1.084       .  S
C872        C873   1.412       .  A
C873        C874   1.401       .  A
C873        N880   1.430       .  S
C874        C875   1.403       .  A
C874        H879   1.084       .  S
C875        C876   1.412       .  A
C876        N877   1.438       .  S
N877        O881   1.263       .  A
N877        O882   1.263       .  A
N880        O883   1.261       .  A
N880        O884   1.262       .  A
C885        C886   1.407       .  A
C885        C890   1.410       .  A
C885        H892   1.078       .  S
C886        C887   1.416       .  A
C887        C888   1.399       .  A
C887        N894   1.431       .  S
C888        C889   1.395       .  A
C888        H893   1.084       .  S
C889        C890   1.415       .  A
C890        N891   1.443       .  S
N891        O895   1.263       .  A
N891        O896   1.262       .  A
N894        O897   1.263       .  A
N894        O898   1.260       .  A
C899        C900   1.406       .  A
C899        C904   1.411       .  A
C899        H906   1.082       .  S
C900        C901   1.416       .  A
C901        C902   1.396       .  A
C901        N908   1.438       .  S
C902        C903   1.401       .  A
C902        H907   1.084       .  S
C903        C904   1.416       .  A
C904        N905   1.433       .  S
N905        O909   1.262       .  A
N905        O910   1.262       .  A
N908        O911   1.260       .  A
N908        O912   1.263       .  A
C913        C914   1.407       .  A
C913        C918   1.396       .  A
C913        H920   1.082       .  S
C914        C915   1.417       .  A
C915        C916   1.406       .  A
C915        N922   1.435       .  S
C916        C917   1.406       .  A
C916        H921   1.083       .  S
C917        C918   1.410       .  A
C918        N919   1.436       .  S
N919        O923   1.263       .  A
N919        O924   1.263       .  A
N922        O925   1.259       .  A
N922        O926   1.263       .  A
C927        C928   1.403       .  A
C927        C932   1.402       .  A
C927        H934   1.079       .  S
C928        C929   1.415       .  A
C929        C930   1.401       .  A
C929        N936   1.438       .  S
C930        C931   1.403       .  A
C930        H935   1.083       .  S
C931        C932   1.415       .  A
C932        N933   1.434       .  S
N933        O937   1.262       .  A
N933        O938   1.263       .  A
N936        O939   1.260       .  A
N936        O940   1.263       .  A
C941        C942   1.404       .  A
C941        C946   1.406       .  A
C941        H948   1.076       .  S
C942        C943   1.416       .  A
C943        C944   1.402       .  A
C943        N950   1.429       .  S
C944        C945   1.397       .  A
C944        H949   1.084       .  S
C945        C946   1.415       .  A
C946        N947   1.441       .  S
N947        O951   1.263       .  A
N947        O952   1.263       .  A
N950        O953   1.261       .  A
N950        O954   1.263       .  A
C955        C956   1.406       .  A
C955        C960   1.398       .  A
C955        H962   1.081       .  S
C956        C957   1.421       .  A
C957        C958   1.409       .  A
C957        N964   1.436       .  S
C958        C959   1.401       .  A
C958        H963   1.084       .  S
C959        C960   1.411       .  A
C960        N961   1.440       .  S
N961        O965   1.263       .  A
N961        O966   1.263       .  A
N964        O967   1.263       .  A
N964        O968   1.259       .  A
C969        C970   1.398       .  A
C969        C974   1.398   1_556  A
C969        H976   1.084   1_556  S
C970        C971   1.413       .  A
C971        C972   1.404       .  A
C971        N978   1.440       .  S
C972        C973   1.404       .  A
C972        H977   1.082       .  S
C973        C974   1.417   1_556  A
C974        N975   1.441       .  S
N975        O979   1.263       .  A
N975        O980   1.262       .  A
N978        O981   1.263       .  A
N978        O982   1.263       .  A
C983        C984   1.405       .  A
C983        C988   1.405       .  A
C983        H990   1.084       .  S
C984        C985   1.413       .  A
C985        C986   1.397   1_554  A
C985        N992   1.435   1_554  S
C986        C987   1.404   1_556  A
C986        H991   1.084       .  S
C987        C988   1.417       .  A
C988        N989   1.435       .  S
N989        O993   1.261   1_655  A
N989        O994   1.263       .  A
N992        O995   1.262       .  A
N992        O996   1.262       .  A
C997        C998   1.400       .  A
C997       C1002   1.395       .  A
C997       H1004   1.084       .  S
C998        C999   1.414       .  A
C999       C1000   1.406       .  A
C999       N1006   1.432       .  S
C1000      C1001   1.407       .  A
C1000      H1005   1.082       .  S
C1001      C1002   1.414       .  A
C1002      N1003   1.428       .  S
N1003      O1007   1.262       .  A
N1003      O1008   1.262       .  A
N1006      O1009   1.262       .  A
N1006      O1010   1.262       .  A
C1011      C1012   1.407       .  A
C1011      C1016   1.408       .  A
C1011      H1018   1.083       .  S
C1012      C1013   1.413       .  A
C1013      C1014   1.396       .  A
C1013      N1020   1.428       .  S
C1014      C1015   1.400       .  A
C1014      H1019   1.084       .  S
C1015      C1016   1.416       .  A
C1016      N1017   1.437       .  S
N1017      O1021   1.263       .  A
N1017      O1022   1.262       .  A
N1020      O1023   1.260       .  A
N1020      O1024   1.262       .  A
C1025      C1026   1.406       .  A
C1025      C1030   1.401       .  A
C1025      H1032   1.081       .  S
C1026      C1027   1.421       .  A
C1027      C1028   1.410       .  A
C1027      N1034   1.442       .  S
C1028      C1029   1.400       .  A
C1028      H1033   1.083       .  S
C1029      C1030   1.411       .  A
C1030      N1031   1.445       .  S
N1031      O1035   1.263       .  A
N1031      O1036   1.263       .  A
N1034      O1037   1.259       .  A
N1034      O1038   1.263       .  A
C1039      C1040   1.403       .  A
C1039      C1044   1.399       .  A
C1039      H1046   1.081       .  S
C1040      C1041   1.422       .  A
C1041      C1042   1.409       .  A
C1041      N1048   1.445       .  S
C1042      C1043   1.405       .  A
C1042      H1047   1.083       .  S
C1043      C1044   1.412       .  A
C1044      N1045   1.436       .  S
N1045      O1049   1.263       .  A
N1045      O1050   1.262       .  A
N1048      O1051   1.259       .  A
N1048      O1052   1.263       .  A
C1053      C1054   1.402       .  A
C1053      C1058   1.403       .  A
C1053      H1060   1.083       .  S
C1054      C1055   1.417       .  A
C1055      C1056   1.399       .  A
C1055      N1062   1.442       .  S
C1056      C1057   1.401       .  A
C1056      H1061   1.083       .  S
C1057      C1058   1.417       .  A
C1058      N1059   1.432       .  S
N1059      O1063   1.262       .  A
N1059      O1064   1.262       .  A
N1062      O1065   1.262       .  A
N1062      O1066   1.263       .  A
C1067      C1068   1.399       .  A
C1067      C1072   1.396       .  A
C1067      H1074   1.084       .  S
C1068      C1069   1.418       .  A
C1069      C1070   1.408       .  A
C1069      N1076   1.435       .  S
C1070      C1071   1.406       .  A
C1070      H1075   1.081       .  S
C1071      C1072   1.421       .  A
C1072      N1073   1.438       .  S
N1073      O1077   1.261       .  A
N1073      O1078   1.263       .  A
N1076      O1079   1.262       .  A
N1076      O1080   1.263       .  A
C1081      C1082   1.406       .  A
C1081      C1086   1.412   1_565  A
C1081      H1088   1.083   1_565  S
C1082      C1083   1.408       .  A
C1083      C1084   1.394       .  A
C1083      N1090   1.436       .  S
C1084      C1085   1.404       .  A
C1084      H1089   1.081       .  S
C1085      C1086   1.423   1_565  A
C1086      N1087   1.448       .  S
N1087      O1091   1.263       .  A
N1087      O1092   1.261       .  A
N1090      O1093   1.262       .  A
N1090      O1094   1.262       .  A
C1095      C1096   1.405       .  A
C1095      C1100   1.405   1_565  A
C1095      H1102   1.083   1_565  S
C1096      C1097   1.415       .  A
C1097      C1098   1.397       .  A
C1097      N1104   1.434       .  S
C1098      C1099   1.402   1_565  A
C1098      H1103   1.084       .  S
C1099      C1100   1.419       .  A
C1100      N1101   1.444       .  S
N1101      O1105   1.263       .  A
N1101      O1106   1.262       .  A
N1104      O1107   1.263       .  A
N1104      O1108   1.262       .  A
C1109      C1110   1.402       .  A
C1109      C1114   1.406       .  A
C1109      H1116   1.084       .  S
C1110      C1111   1.407       .  A
C1111      C1112   1.392       .  A
C1111      N1118   1.431       .  S
C1112      C1113   1.404       .  A
C1112      H1117   1.080       .  S
C1113      C1114   1.418       .  A
C1114      N1115   1.428       .  S
N1115      O1119   1.261       .  A
N1115      O1120   1.262       .  A
N1118      O1121   1.262       .  A
N1118      O1122   1.262       .  A
C1123      C1124   1.403       .  A
C1123      C1128   1.409       .  A
C1123      H1130   1.084       .  S
C1124      C1125   1.409       .  A
C1125      C1126   1.401       .  A
C1125      N1132   1.442       .  S
C1126      C1127   1.406       .  A
C1126      H1131   1.082       .  S
C1127      C1128   1.419       .  A
C1128      N1129   1.440       .  S
N1129      O1133   1.263       .  A
N1129      O1134   1.260       .  A
N1132      O1135   1.263       .  A
N1132      O1136   1.263       .  A
