geometry optimzed in LAMMPS
_audit_creation_date              2020-12-01 
_audit_creation_method            'lammps2cif' 
_symmetry_space_group_name_H-M    'P1' 
_symmetry_Int_Tables_number       1 
_symmetry_cell_setting            triclinic 
loop_ 
_symmetry_equiv_pos_as_xyz 
  x,y,z 
_cell_length_a                    38.8145351 
_cell_length_b                    38.816814334254275 
_cell_length_c                    59.374758850417585 
_cell_angle_alpha                 89.83417200949724 
_cell_angle_beta                  89.88212329416784 
_cell_angle_gamma                 90.05399132048105 
loop_ 
_atom_site_label 
_atom_site_type_symbol 
_atom_site_fract_x 
_atom_site_fract_y 
_atom_site_fract_z 
_atom_site_charge 
O1          O  0.40824135  0.19976701  0.13269995    -0.71500
O2          O  0.43791112  0.10652867  0.12518794    -0.71700
O3          O  0.41061497  0.15492563  0.09812268    -0.71600
O4          O  0.43616132  0.15152532  0.15961068    -0.71600
O5          O  0.38517518  0.13383382  0.16880060    -0.71500
O6          O  0.35939726  0.13635177  0.10653679    -0.71600
O7          O  0.38653570  0.08891878  0.13418034    -0.71500
O8          O  0.35719404  0.18103165  0.14114950    -0.71700
V9          V  0.42225064  0.15281681  0.12908634     1.35200
V10         V  0.37307262  0.13540273  0.13752727     1.35200
C11         C  0.37732827  0.20620759  0.13807607     0.77700
C12         C  0.41685224  0.08192713  0.12803528     0.77800
C13         C  0.38080348  0.14633871  0.09172678     0.77700
C14         C  0.41532371  0.14246613  0.17485801     0.77600
O15         O  0.49282775  0.71373621  0.12713978    -0.71500
O16         O  0.45966578  0.80579827  0.12069555    -0.71700
O17         O  0.48799782  0.75873925  0.09277476    -0.71600
O18         O  0.46438702  0.76049390  0.15496130    -0.71600
O19         O  0.51462252  0.78141617  0.16284355    -0.71500
O20         O  0.53928807  0.77760031  0.10058318    -0.71600
O21         O  0.51112064  0.82514141  0.12762013    -0.71500
O22         O  0.54320122  0.73405181  0.13590199    -0.71700
V23         V  0.47717515  0.76010754  0.12401902     1.35200
V24         V  0.52605253  0.77914397  0.13158474     1.35200
C25         C  0.52367310  0.70840155  0.13304907     0.77700
C26         C  0.48001794  0.83107892  0.12285672     0.77800
C27         C  0.51773204  0.76742098  0.08606156     0.77700
C28         C  0.48535349  0.77128725  0.16965064     0.77600
O29         O  0.39277487  0.20737140  0.88843369    -0.71500
O30         O  0.43098486  0.11716415  0.88181962    -0.71700
O31         O  0.42017513  0.17093703  0.85398948    -0.71600
O32         O  0.40434670  0.15362048  0.91616662    -0.71600
O33         O  0.35175602  0.13812727  0.90882655    -0.71500
O34         O  0.37162562  0.14605878  0.84590177    -0.71600
O35         O  0.37938810  0.09695020  0.87732286    -0.71500
O36         O  0.34337048  0.18722234  0.87754491    -0.71700
V37         V  0.41116233  0.16196695  0.88494047     1.35200
V38         V  0.36248091  0.14253279  0.87749696     1.35200
C39         C  0.36131393  0.21253459  0.88390280     0.77700
C40         C  0.41131527  0.09143443  0.87918218     0.77800
C41         C  0.39924233  0.16031875  0.83926706     0.77700
C42         C  0.37524779  0.14352284  0.92316385     0.77600
O43         O  0.48578083  0.72126634  0.87972949    -0.71500
O44         O  0.45363708  0.81448478  0.88113595    -0.71700
O45         O  0.45773549  0.76563143  0.84956601    -0.71600
O46         O  0.48051022  0.77044863  0.91150112    -0.71600
O47         O  0.53247728  0.78687762  0.90317880    -0.71500
O48         O  0.50848328  0.78505188  0.84062486    -0.71600
O49         O  0.50544131  0.83197785  0.87363446    -0.71500
O50         O  0.53647691  0.74017330  0.87017976    -0.71700
V51         V  0.47042275  0.76819526  0.88031659     1.35200
V52         V  0.51970968  0.78559879  0.87202766     1.35200
C53         C  0.51701970  0.71514529  0.87491145     0.77700
C54         C  0.47436667  0.83921144  0.87774246     0.77800
C55         C  0.47853750  0.77584777  0.83460068     0.77700
C56         C  0.51009128  0.77954972  0.91801945     0.77600
O57         O  0.40330362  0.72596003  0.62827515    -0.71500
O58         O  0.42749920  0.82145515  0.62343515    -0.71700
O59         O  0.42639819  0.77481853  0.65700672    -0.71600
O60         O  0.40541893  0.77264287  0.59476850    -0.71600
O61         O  0.35320368  0.78968741  0.60171822    -0.71500
O62         O  0.37298981  0.78645753  0.66482777    -0.71600
O63         O  0.37525952  0.83500491  0.63253915    -0.71500
O64         O  0.35004994  0.74109026  0.63380632    -0.71700
V65         V  0.41466958  0.77394909  0.62604859     1.35200
V66         V  0.36390532  0.78772095  0.63313975     1.35200
C67         C  0.37201613  0.71754644  0.63102909     0.77700
C68         C  0.40524651  0.84465994  0.62731678     0.77800
C69         C  0.40355507  0.78134273  0.67154816     0.77700
C70         C  0.37615823  0.78146331  0.58751478     0.77600
O71         O  0.49061511  0.21227239  0.63250385    -0.71500
O72         O  0.45392422  0.12097775  0.62923745    -0.71700
O73         O  0.46043440  0.16850765  0.66196893    -0.71600
O74         O  0.48327219  0.16520017  0.59999551    -0.71600
O75         O  0.53252750  0.14160379  0.60789800    -0.71500
O76         O  0.51126881  0.14998303  0.67072377    -0.71600
O77         O  0.50367415  0.10070145  0.63947174    -0.71500
O78         O  0.54115525  0.19045472  0.63912310    -0.71700
V79         V  0.47298495  0.16630326  0.63114135     1.35200
V80         V  0.52118451  0.14609955  0.63919345     1.35200
C81         C  0.52265076  0.21653808  0.63538982     0.77700
C82         C  0.47271370  0.09535564  0.63412415     0.77800
C83         C  0.48174889  0.16011607  0.67709030     0.77700
C84         C  0.51170323  0.15320166  0.59329694     0.77600
O85         O  0.41225033  0.71608209  0.37954220    -0.71500
O86         O  0.44209547  0.80986094  0.38040965    -0.71700
O87         O  0.41838282  0.76528396  0.41128146    -0.71600
O88         O  0.43670844  0.76090926  0.34855166    -0.71600
O89         O  0.38503476  0.77933710  0.34149405    -0.71500
O90         O  0.36564529  0.78058104  0.40463586    -0.71600
O91         O  0.38935079  0.82620550  0.37452115    -0.71500
O92         O  0.36052660  0.73355304  0.37165230    -0.71700
V93         V  0.42635757  0.76327711  0.37978995     1.35200
V94         V  0.37615694  0.77948959  0.37316643     1.35200
C95         C  0.38099407  0.70902771  0.37556834     0.77700
C96         C  0.42045079  0.83396740  0.37793083     0.77800
C97         C  0.38925267  0.77424044  0.41876238     0.77700
C98         C  0.41445211  0.77035313  0.33431435     0.77600
O99         O  0.48719185  0.20422748  0.38442955    -0.71500
O100        O  0.45324362  0.11172594  0.38617504    -0.71700
O101        O  0.47895901  0.15583025  0.41669273    -0.71600
O102        O  0.46065315  0.16017143  0.35409202    -0.71600
O103        O  0.51057463  0.13748683  0.34698203    -0.71500
O104        O  0.53150005  0.13999065  0.40990831    -0.71600
O105        O  0.50557108  0.09314042  0.38151835    -0.71500
O106        O  0.53756346  0.18434344  0.37522939    -0.71700
V107        V  0.47096700  0.15766216  0.38523080     1.35200
V108        V  0.52033439  0.13918472  0.37853410     1.35200
C109        C  0.51840499  0.20981615  0.37928892     0.77700
C110        C  0.47402157  0.08672955  0.38427587     0.77800
C111        C  0.50830584  0.14751238  0.42412684     0.77700
C112        C  0.48199732  0.14890372  0.33984272     0.77600
O113        O  0.19367868  0.41358028  0.13676361    -0.71500
O114        O  0.10170591  0.44872679  0.13623423    -0.71700
O115        O  0.15024690  0.43998096  0.16797979    -0.71600
O116        O  0.14546741  0.42322564  0.10519974    -0.71600
O117        O  0.12396054  0.37239963  0.11146971    -0.71500
O118        O  0.13159883  0.38830082  0.17493289    -0.71600
O119        O  0.08251823  0.39738688  0.14380615    -0.71500
O120        O  0.17291097  0.36225582  0.14242344    -0.71700
V121        V  0.14737827  0.43042325  0.13673107     1.35200
V122        V  0.12819225  0.38109722  0.14309058     1.35200
C123        C  0.19853521  0.38144591  0.13867405     0.77700
C124        C  0.07646599  0.42869918  0.13982669     0.77800
C125        C  0.14129840  0.41742400  0.18222233     0.77700
C126        C  0.13437310  0.39498875  0.09756565     0.77600
O127        O  0.70722914  0.50110054  0.12866411    -0.71500
O128        O  0.80009622  0.46891252  0.13231122    -0.71700
O129        O  0.74743383  0.47438929  0.16138003    -0.71600
O130        O  0.75995288  0.49481076  0.09947147    -0.71600
O131        O  0.77333308  0.54764440  0.10773461    -0.71500
O132        O  0.76803090  0.52426481  0.17038178    -0.71600
O133        O  0.81700096  0.52127000  0.13834376    -0.71500
O134        O  0.72482765  0.55150883  0.13961308    -0.71700
V135        V  0.75395909  0.48575326  0.13063513     1.35200
V136        V  0.77045992  0.53518266  0.13891293     1.35200
C137        C  0.70050690  0.53213067  0.13352471     0.77700
C138        C  0.82455627  0.48999337  0.13535276     0.77800
C139        C  0.75654285  0.49509550  0.17659895     0.77700
C140        C  0.76809483  0.52474545  0.09295732     0.77600
O141        O  0.18276495  0.42668167  0.88941147    -0.71500
O142        O  0.09037654  0.46057975  0.88965927    -0.71700
O143        O  0.13344234  0.43467518  0.92085191    -0.71600
O144        O  0.13977262  0.45334836  0.85818044    -0.71600
O145        O  0.11648590  0.40370479  0.85094374    -0.71500
O146        O  0.11872559  0.38191374  0.91380837    -0.71600
O147        O  0.07192146  0.40810645  0.88539786    -0.69900
O148        O  0.16318251  0.37662347  0.87921748    -0.71700
V149        V  0.13626130  0.44290407  0.88938525     1.35200
V150        V  0.11797855  0.39355682  0.88247022     1.35200
C151        C  0.18847331  0.39578404  0.88373551     0.77700
C152        C  0.06546435  0.43965241  0.88794281     0.77800
C153        C  0.12574997  0.40499767  0.92815160     0.77700
C154        C  0.12855147  0.43210300  0.84385743     0.77600
O155        O  0.69533131  0.50372881  0.88263895    -0.71500
O156        O  0.78832233  0.47267941  0.88829391    -0.71700
O157        O  0.74064441  0.49757143  0.91686511    -0.71600
O158        O  0.74292426  0.47817860  0.85430765    -0.71600
O159        O  0.76302289  0.52943489  0.84750453    -0.71500
O160        O  0.75805074  0.54979171  0.91045650    -0.71600
O161        O  0.80616520  0.52504003  0.88253061    -0.71500
O162        O  0.71456286  0.55504971  0.87498886    -0.71700
V163        V  0.74215178  0.48904022  0.88543756     1.35200
V164        V  0.75997896  0.53885485  0.87903892     1.35200
C165        C  0.68939229  0.53468163  0.87710410     0.77700
C166        C  0.81303139  0.49380520  0.88618916     0.77800
C167        C  0.74909401  0.52672528  0.92447814     0.77700
C168        C  0.75342482  0.50030918  0.84024090     0.77600
O169        O  0.70467214  0.42658427  0.63259219    -0.71500
O170        O  0.79721012  0.45878802  0.62633961    -0.71700
O171        O  0.75043815  0.43050981  0.59844740    -0.71600
O172        O  0.75139677  0.45518762  0.66022734    -0.71600
O173        O  0.77122873  0.40487964  0.66906464    -0.71500
O174        O  0.76878538  0.37929410  0.60692198    -0.71600
O175        O  0.81587247  0.40738171  0.63426047    -0.71500
O176        O  0.72432780  0.37618665  0.64159908    -0.71700
V177        V  0.75130669  0.44179338  0.62955142     1.35200
V178        V  0.76965694  0.39293148  0.63782326     1.35200
C179        C  0.69878002  0.39562704  0.63811608     0.77700
C180        C  0.82219492  0.43826081  0.62902876     0.77800
C181        C  0.75904088  0.40066760  0.59208302     0.77700
C182        C  0.76161543  0.43460829  0.67530189     0.77600
O183        O  0.19086232  0.50951643  0.63710424    -0.71500
O184        O  0.09763657  0.47993072  0.62947915    -0.71700
O185        O  0.14633661  0.50722014  0.60248192    -0.71600
O186        O  0.14204444  0.48154894  0.66411114    -0.71600
O187        O  0.12410556  0.53251425  0.67293838    -0.71500
O188        O  0.12815906  0.55855178  0.61067458    -0.71600
O189        O  0.08009913  0.53141003  0.63800362    -0.71500
O190        O  0.17233760  0.56047217  0.64543241    -0.71700
V191        V  0.14389162  0.49553704  0.63349493     1.35200
V192        V  0.12659142  0.54474167  0.64166411     1.35200
C193        C  0.19753952  0.54051545  0.64202429     0.77700
C194        C  0.07307806  0.50102225  0.63208505     0.77800
C195        C  0.13818665  0.53714912  0.59597218     0.77700
C196        C  0.13180624  0.50214523  0.67912214     0.77600
O197        O  0.70930813  0.41046332  0.38714537    -0.71500
O198        O  0.79956000  0.45017629  0.38516648    -0.71700
O199        O  0.74897924  0.44064980  0.35516368    -0.71600
O200        O  0.76002481  0.42117413  0.41727665    -0.71600
O201        O  0.77764283  0.36945294  0.40943398    -0.71500
O202        O  0.77448489  0.39259531  0.34675008    -0.71600
O203        O  0.82065579  0.39917425  0.37984464    -0.71500
O204        O  0.73130211  0.36177671  0.37633165    -0.71700
V205        V  0.75475892  0.42967286  0.38603421     1.35200
V206        V  0.77551392  0.38167854  0.37819164     1.35200
C207        C  0.70526772  0.37894260  0.38226255     0.77700
C208        C  0.82565961  0.43098817  0.38265206     0.77800
C209        C  0.76152186  0.42097117  0.34038307     0.77700
C210        C  0.77047426  0.39212512  0.42401808     0.77600
O211        O  0.19449100  0.50668305  0.39209831    -0.71500
O212        O  0.10170816  0.47375622  0.39002711    -0.71700
O213        O  0.15395822  0.47791583  0.36049532    -0.71600
O214        O  0.14208405  0.50168355  0.42189471    -0.71600
O215        O  0.12678425  0.55349363  0.41243945    -0.71500
O216        O  0.13421734  0.52769846  0.35021206    -0.71600
O217        O  0.08454973  0.52538000  0.38175793    -0.71500
O218        O  0.17637527  0.55684498  0.38089471    -0.71700
V219        V  0.14777511  0.49100083  0.39094658     1.35200
V220        V  0.13088191  0.53988021  0.38147166     1.35200
C221        C  0.20092167  0.53772396  0.38696967     0.77700
C222        C  0.07721012  0.49433433  0.38589744     0.77800
C223        C  0.14552654  0.49815556  0.34477855     0.77700
C224        C  0.13243304  0.53140536  0.42778340     0.77600
C225        C  0.90916065  0.48083569  0.39382606    -0.22200
C226        C  0.93236985  0.46086687  0.38135977     0.09800
C227        C  0.92028488  0.43295798  0.36861325     0.10200
C228        C  0.88515044  0.42507391  0.36899663    -0.17100
C229        C  0.86157549  0.44411884  0.38207027    -0.27500
C230        C  0.87385118  0.47279538  0.39458035     0.18500
C231        C  0.96946872  0.46906265  0.38226809     0.12500
C232        C  0.94452958  0.41136358  0.35470322    -0.11900
H233        H  0.87613087  0.40344401  0.35915242     0.12800
C234        C  0.85177171  0.49486867  0.40968790    -0.22700
H235        H  0.91887050  0.50233814  0.40352443     0.08400
C236        C  0.98401610  0.49433303  0.36817559     0.04700
C237        C  0.01934324  0.50113405  0.36964761    -0.19900
C238        C  0.04064712  0.48335955  0.38495418    -0.12200
C239        C  0.02580711  0.45761836  0.39902622     0.13500
C240        C  0.99038938  0.45077641  0.39729881    -0.22700
C241        C  0.96225139  0.51398371  0.35154496    -0.05700
H242        H  0.03041104  0.52062911  0.35869641     0.15000
C243        C  0.04530253  0.43755333  0.41665182    -0.15900
H244        H  0.97880208  0.43127832  0.40802819     0.09300
H245        H  0.85220543  0.52186293  0.40345312     0.07200
H246        H  0.86243370  0.49435647  0.42703029     0.08400
H247        H  0.82468672  0.48665851  0.41098784     0.07400
H248        H  0.96404787  0.39913960  0.36577713     0.02300
H249        H  0.95779901  0.42784503  0.34206740     0.02800
H250        H  0.93073618  0.39059236  0.34557421     0.06300
H251        H  0.97779273  0.53273723  0.34165802     0.05300
H252        H  0.94185817  0.52843996  0.36061479    -0.00500
H253        H  0.95001576  0.49578456  0.33958421     0.01000
H254        H  0.03292820  0.44145301  0.43333505     0.04600
H255        H  0.07250832  0.44504620  0.41844413     0.06600
H256        H  0.04436597  0.40968897  0.41252486     0.07400
C257        C  0.16280412  0.53705135  0.53388008    -0.22200
C258        C  0.13397509  0.55284800  0.52418710     0.09800
C259        C  0.10845048  0.56712043  0.53832659     0.10200
C260        C  0.11154953  0.56371571  0.56188632    -0.17100
C261        C  0.13945786  0.54601298  0.57158732    -0.27500
C262        C  0.16620638  0.53394744  0.55733305     0.18500
C263        C  0.12986852  0.55094577  0.49929452     0.12500
C264        C  0.07756312  0.58506664  0.52849847    -0.11900
H265        H  0.09125121  0.57342557  0.57268201     0.12800
C266        C  0.19901912  0.51820865  0.56617255    -0.22700
H267        H  0.18265705  0.52657703  0.52299972     0.08400
C268        C  0.14537203  0.57494025  0.48448781     0.04700
C269        C  0.14394203  0.56929807  0.46105149    -0.19900
C270        C  0.12845032  0.53955108  0.45215859    -0.12200
C271        C  0.11148523  0.51651221  0.46706993     0.13500
C272        C  0.11234588  0.52257898  0.49036992    -0.22700
C273        C  0.16409979  0.60593601  0.49348999    -0.05700
H274        H  0.15628880  0.58748055  0.44974339     0.15000
C275        C  0.09183226  0.48576995  0.45850302    -0.15900
H276        H  0.10014054  0.50443590  0.50183058     0.09300
H277        H  0.22148569  0.53211819  0.55892344     0.07200
H278        H  0.20044220  0.49072251  0.56114012     0.08400
H279        H  0.20141854  0.52003828  0.58468848     0.07400
H280        H  0.06287130  0.56692153  0.51774741     0.02300
H281        H  0.08610636  0.60733799  0.51812532     0.02800
H282        H  0.06000606  0.59477364  0.54183885     0.06300
H283        H  0.17483331  0.62212781  0.47969971     0.05300
H284        H  0.18574278  0.59751057  0.50438232    -0.00500
H285        H  0.14612698  0.62198733  0.50353326     0.01000
H286        H  0.10964615  0.46719198  0.45043912     0.04600
H287        H  0.07220892  0.49445929  0.44615795     0.06600
H288        H  0.07824685  0.47192632  0.47231107     0.07400
C289        C  0.73721377  0.39866635  0.52948958    -0.22200
C290        C  0.76591926  0.38141946  0.52075279     0.09800
C291        C  0.79077632  0.36789451  0.53564569     0.10200
C292        C  0.78684760  0.37288501  0.55898721    -0.17100
C293        C  0.75890382  0.39164366  0.56775548    -0.27500
C294        C  0.73307484  0.40357753  0.55274809     0.18500
C295        C  0.77040189  0.38031607  0.49590438     0.12500
C296        C  0.82170026  0.34878252  0.52683755    -0.11900
H297        H  0.80645566  0.36330076  0.57035017     0.12800
C298        C  0.70037250  0.42081520  0.56049117    -0.22700
H299        H  0.71794904  0.40867933  0.51799551     0.08400
C300        C  0.75259132  0.35647036  0.48226890     0.04700
C301        C  0.75486218  0.35929286  0.45865325    -0.19900
C302        C  0.77419522  0.38569381  0.44847316    -0.12200
C303        C  0.79353378  0.40829526  0.46223417     0.13500
C304        C  0.79112570  0.40548496  0.48572763    -0.22700
C305        C  0.73068058  0.32862474  0.49267589    -0.05700
H306        H  0.74013877  0.34187900  0.44814710     0.15000
C307        C  0.81718471  0.43551805  0.45270622    -0.15900
H308        H  0.80511062  0.42353831  0.49624457     0.09300
H309        H  0.67782775  0.40695850  0.55341191     0.07200
H310        H  0.69990986  0.44790076  0.55443746     0.08400
H311        H  0.69717065  0.42051407  0.57897088     0.07400
H312        H  0.83715266  0.36594620  0.51574847     0.02300
H313        H  0.81312087  0.32601249  0.51705523     0.02800
H314        H  0.83857377  0.33966857  0.54071240     0.06300
H315        H  0.71868316  0.31198727  0.47966820     0.05300
H316        H  0.70975653  0.34035640  0.50284883    -0.00500
H317        H  0.74681236  0.31213043  0.50372835     0.01000
H318        H  0.80758281  0.46146665  0.45739299     0.04600
H319        H  0.81958999  0.43414579  0.43415543     0.06600
H320        H  0.84345099  0.43204824  0.45973338     0.07400
C321        C  0.91605633  0.44239638  0.61158642    -0.22200
C322        C  0.92879965  0.46635591  0.62707167     0.09800
C323        C  0.90594078  0.48289657  0.64206133     0.10200
C324        C  0.87075585  0.47450164  0.64154298    -0.17100
C325        C  0.85815973  0.44969077  0.62654733    -0.27500
C326        C  0.88096255  0.43383927  0.61109836     0.18500
C327        C  0.96623258  0.47367803  0.62738032     0.12500
C328        C  0.91888851  0.50864950  0.65898053    -0.11900
H329        H  0.85322242  0.48635289  0.65346177     0.12800
C330        C  0.86911571  0.40824403  0.59369104    -0.22700
H331        H  0.93367772  0.43013373  0.59990042     0.08400
C332        C  0.98954283  0.45216587  0.63899305     0.04700
C333        C  0.02467266  0.46089724  0.63945523    -0.19900
C334        C  0.03684210  0.49073833  0.62865483    -0.12200
C335        C  0.01353041  0.51150023  0.61624433     0.13500
C336        C  0.97847373  0.50282290  0.61598168    -0.22700
C337        C  0.97714053  0.42053664  0.65132919    -0.05700
H338        H  0.04251607  0.44503643  0.64893944     0.15000
C339        C  0.02465087  0.54238677  0.60255712    -0.15900
H340        H  0.96048858  0.51889844  0.60675376     0.09300
H341        H  0.88184994  0.38304854  0.59668165     0.07200
H342        H  0.87626740  0.41767918  0.57663380     0.08400
H343        H  0.84087381  0.40423867  0.59382598     0.07400
H344        H  0.93104268  0.53075532  0.65010936     0.02300
H345        H  0.93821010  0.49627375  0.67013868     0.02800
H346        H  0.89770527  0.51874655  0.66968804     0.06300
H347        H  0.99862614  0.40683078  0.65981992     0.05300
H348        H  0.96494425  0.40245884  0.63927796    -0.00500
H349        H  0.95797636  0.42797007  0.66434274     0.01000
H350        H  0.01601491  0.53917789  0.58486417     0.04600
H351        H  0.05291472  0.54596151  0.60202780     0.06600
H352        H  0.01267860  0.56602194  0.60956051     0.07400
C353        C  0.72937367  0.46784075  0.78188001    -0.22200
C354        C  0.76081518  0.47118789  0.77043647     0.09800
C355        C  0.78945925  0.48537803  0.78173178     0.10200
C356        C  0.78608502  0.49559540  0.80436631    -0.17100
C357        C  0.75470190  0.49182363  0.81595277    -0.27500
C358        C  0.72582857  0.47817759  0.80442216     0.18500
C359        C  0.76240599  0.46150211  0.74623980     0.12500
C360        C  0.82358346  0.48946351  0.76991607    -0.11900
H361        H  0.80818630  0.50587509  0.81319431     0.12800
C362        C  0.69055742  0.47525355  0.81497697    -0.22700
H363        H  0.70727709  0.45758359  0.77303020     0.08400
C364        C  0.76920193  0.42750973  0.73922763     0.04700
C365        C  0.76910294  0.41963019  0.71608407    -0.19900
C366        C  0.76207224  0.44493159  0.69963184    -0.12200
C367        C  0.75551188  0.47926535  0.70693887     0.13500
C368        C  0.75581129  0.48689735  0.73007648    -0.22700
C369        C  0.77641147  0.39956520  0.75621240    -0.05700
H370        H  0.77419610  0.39342022  0.71089580     0.15000
C371        C  0.74826060  0.50840435  0.69077002    -0.15900
H372        H  0.75058287  0.51289020  0.73569610     0.09300
H373        H  0.68266070  0.44777295  0.81560646     0.07200
H374        H  0.67169351  0.48976715  0.80460603     0.08400
H375        H  0.68918758  0.48589849  0.83222839     0.07400
H376        H  0.82061849  0.50673428  0.75511297     0.02300
H377        H  0.83293548  0.46394121  0.76415239     0.02800
H378        H  0.84340628  0.50073283  0.78117377     0.06300
H379        H  0.78133366  0.37438514  0.74798281     0.05300
H380        H  0.75395662  0.39652030  0.76766051    -0.00500
H381        H  0.79946091  0.40645069  0.76628732     0.01000
H382        H  0.72412789  0.50320463  0.68137059     0.04600
H383        H  0.77018841  0.51155939  0.67890146     0.06600
H384        H  0.74476932  0.53333856  0.69961408     0.07400
C385        C  0.15570693  0.46528716  0.78590707    -0.22200
C386        C  0.12495377  0.46188434  0.77378765     0.09800
C387        C  0.09582971  0.44736083  0.78451271     0.10200
C388        C  0.09806755  0.43698679  0.80721519    -0.17100
C389        C  0.12873477  0.44088356  0.81950103    -0.27500
C390        C  0.15813526  0.45479207  0.80852037     0.18500
C391        C  0.12451725  0.47248330  0.74963900     0.12500
C392        C  0.06228356  0.44340309  0.77209841    -0.11900
H393        H  0.07547994  0.42652291  0.81559562     0.12800
C394        C  0.19285881  0.45785617  0.81970169    -0.22700
H395        H  0.17825262  0.47583967  0.77750769     0.08400
C396        C  0.12179907  0.50731562  0.74303714     0.04700
C397        C  0.12399990  0.51614270  0.72003856    -0.19900
C398        C  0.12888783  0.49094621  0.70328707    -0.12200
C399        C  0.13048435  0.45572438  0.71009823     0.13500
C400        C  0.12844306  0.44717716  0.73311377    -0.22700
C401        C  0.11636524  0.53512121  0.76031149    -0.05700
H402        H  0.12223694  0.54301163  0.71518942     0.15000
C403        C  0.13391436  0.42661504  0.69346732    -0.15900
H404        H  0.13029811  0.42046159  0.73835789     0.09300
H405        H  0.20053117  0.48538911  0.82046845     0.07200
H406        H  0.21231224  0.44358284  0.80965533     0.08400
H407        H  0.19352478  0.44704754  0.83695197     0.07400
H408        H  0.06587422  0.42614644  0.75740970     0.02300
H409        H  0.05331931  0.46898987  0.76611514     0.02800
H410        H  0.04188530  0.43216394  0.78303091     0.06300
H411        H  0.11423075  0.56098093  0.75238578     0.05300
H412        H  0.13836857  0.53563114  0.77221383    -0.00500
H413        H  0.09223322  0.52998013  0.76982936     0.01000
H414        H  0.15896707  0.42845833  0.68450477     0.04600
H415        H  0.11232252  0.42749536  0.68123563     0.06600
H416        H  0.13310721  0.40102188  0.70187484     0.07400
C417        C  0.89918179  0.44905606  0.87752212    -0.22200
C418        C  0.92068352  0.47046007  0.89026072     0.09800
C419        C  0.90657011  0.49826038  0.90230290     0.10200
C420        C  0.87106096  0.50430575  0.90116321    -0.17100
C421        C  0.84937516  0.48330720  0.88814339    -0.27500
C422        C  0.86365832  0.45535661  0.87600659     0.18500
C423        C  0.95809272  0.46369498  0.89042390     0.12500
C424        C  0.92906656  0.52166207  0.91615963    -0.11900
H425        H  0.86015994  0.52588513  0.91027693     0.12800
C426        C  0.84305401  0.43288830  0.86030867    -0.22700
H427        H  0.91039892  0.42787159  0.86817696     0.08400
C428        C  0.97266190  0.44021656  0.90579470     0.04700
C429        C  0.00817568  0.43406460  0.90504379    -0.19900
C430        C  0.02935450  0.45076480  0.88922561    -0.12200
C431        C  0.01470836  0.47433116  0.87375626     0.13500
C432        C  0.97916412  0.48075266  0.87474487    -0.22700
C433        C  0.95064628  0.42141046  0.92276622    -0.05700
H434        H  0.01947003  0.41565216  0.91664218     0.15000
C435        C  0.03515234  0.49169233  0.85530744    -0.15900
H436        H  0.96763090  0.49858287  0.86286338     0.09300
H437        H  0.84369588  0.40583825  0.86641879     0.07200
H438        H  0.85464659  0.43393517  0.84320212     0.08400
H439        H  0.81584815  0.44081912  0.85857122     0.07400
H440        H  0.94855467  0.53425398  0.90516592     0.02300
H441        H  0.94244635  0.50648356  0.92937612     0.02800
H442        H  0.91384646  0.54216021  0.92457171     0.06300
H443        H  0.96621205  0.40399110  0.93357174     0.05300
H444        H  0.93106331  0.40561271  0.91391672    -0.00500
H445        H  0.93739109  0.44022921  0.93383063     0.01000
H446        H  0.02408709  0.48473591  0.83869116     0.04600
H447        H  0.06265156  0.48419536  0.85507163     0.06600
H448        H  0.03368845  0.52006873  0.85738300     0.07400
C449        C  0.78819267  0.44244587  0.27996811    -0.22200
C450        C  0.75729808  0.45573104  0.27137465     0.09800
C451        C  0.72800675  0.45732330  0.28542540     0.10200
C452        C  0.73019650  0.44534325  0.30773682    -0.17100
C453        C  0.76098852  0.43165384  0.31638133    -0.27500
C454        C  0.79066243  0.43090956  0.30238660     0.18500
C455        C  0.75598418  0.46693003  0.24741537     0.12500
C456        C  0.69454243  0.47195496  0.27690788    -0.11900
H457        H  0.70767462  0.44659718  0.31851478     0.12800
C458        C  0.82574237  0.41995251  0.31061119    -0.22700
H459        H  0.81073323  0.44160644  0.26918001     0.08400
C460        C  0.76807613  0.49948050  0.24034050     0.04700
C461        C  0.76732787  0.50814710  0.21729962    -0.19900
C462        C  0.75468962  0.48504211  0.20099907    -0.12200
C463        C  0.74167132  0.45256342  0.20846027     0.13500
C464        C  0.74266962  0.44411545  0.23148480    -0.22700
C465        C  0.78163671  0.52506149  0.25716256    -0.05700
H466        H  0.77708772  0.53307954  0.21201922     0.15000
C467        C  0.72668186  0.42625327  0.19258665    -0.15900
H468        H  0.73321086  0.41925190  0.23718431     0.09300
H469        H  0.84443645  0.44121631  0.30776228     0.07200
H470        H  0.83443387  0.39700216  0.30105147     0.08400
H471        H  0.82647312  0.41374882  0.32878260     0.07400
H472        H  0.68513093  0.45647043  0.26248594     0.02300
H473        H  0.69850667  0.49900069  0.27133313     0.02800
H474        H  0.67428547  0.47177298  0.29014733     0.06300
H475        H  0.78974717  0.54949710  0.24893120     0.05300
H476        H  0.80427282  0.51408695  0.26603054    -0.00500
H477        H  0.76125338  0.53114254  0.26968054     0.01000
H478        H  0.74669761  0.41745666  0.18053455     0.04600
H479        H  0.70448793  0.43753479  0.18339599     0.06600
H480        H  0.71711206  0.40305392  0.20165143     0.07400
C481        C  0.78656490  0.51541522  0.03045382    -0.22200
C482        C  0.76390695  0.53979310  0.02130004     0.09800
C483        C  0.74537986  0.56172992  0.03588527     0.10200
C484        C  0.74901160  0.55791562  0.05937249    -0.17100
C485        C  0.77042228  0.53232103  0.06853425    -0.27500
C486        C  0.79027719  0.51156763  0.05384660     0.18500
C487        C  0.75839567  0.53995977  0.99649172     0.12500
C488        C  0.72117972  0.58851074  0.02663574    -0.11900
H489        H  0.73377806  0.57376671  0.07059697     0.12800
C490        C  0.81586082  0.48534753  0.06226302    -0.22700
H491        H  0.80106131  0.49885674  0.01924196     0.08400
C492        C  0.78086989  0.55730565  0.98157583     0.04700
C493        C  0.77621994  0.55389404  0.95815619    -0.19900
C494        C  0.75003547  0.53286075  0.94926578    -0.12200
C495        C  0.72683226  0.51639615  0.96437526     0.13500
C496        C  0.73129026  0.52032233  0.98772915    -0.22700
C497        C  0.81007278  0.57888976  0.99042713    -0.05700
H498        H  0.79403509  0.56659001  0.94675036     0.15000
C499        C  0.69704338  0.49491342  0.95613580    -0.15900
H500        H  0.71403212  0.50721870  0.99931520     0.09300
H501        H  0.84155732  0.49076683  0.05479047     0.07200
H502        H  0.80757053  0.45912749  0.05716821     0.08400
H503        H  0.81897944  0.48587668  0.08079169     0.07400
H504        H  0.70061194  0.57586939  0.01665292     0.02300
H505        H  0.73561133  0.60666232  0.01562910     0.02800
H506        H  0.70873536  0.60358249  0.04028184     0.06300
H507        H  0.82520810  0.59085520  0.97656450     0.05300
H508        H  0.82774124  0.56259932  0.00056059    -0.00500
H509        H  0.79970630  0.59980225  0.00119837     0.01000
H510        H  0.70665785  0.47139229  0.94763848     0.04600
H511        H  0.68107878  0.51023015  0.94427674     0.06600
H512        H  0.68016999  0.48637393  0.97022193     0.07400
C513        C  0.11793754  0.42970879  0.24447541    -0.22200
C514        C  0.14607573  0.44935500  0.25192166     0.09800
C515        C  0.17321349  0.45654084  0.23673900     0.10200
C516        C  0.17116965  0.44467940  0.21442319    -0.17100
C517        C  0.14262662  0.42578278  0.20668029    -0.27500
C518        C  0.11547217  0.41832269  0.22201705     0.18500
C519        C  0.14624037  0.46283302  0.27548047     0.12500
C520        C  0.20391932  0.47763123  0.24383849    -0.11900
H521        H  0.19188749  0.45065753  0.20278548     0.12800
C522        C  0.08256404  0.40041778  0.21530941    -0.22700
H523        H  0.09713828  0.42413877  0.25613634     0.08400
C524        C  0.12419283  0.48980988  0.28237672     0.04700
C525        C  0.12515900  0.50141497  0.30484576    -0.19900
C526        C  0.14766484  0.48673487  0.32074916    -0.12200
C527        C  0.17060360  0.46041535  0.31349837     0.13500
C528        C  0.16930815  0.44872530  0.29109438    -0.22700
C529        C  0.09990917  0.50668537  0.26595579    -0.05700
H530        H  0.10770545  0.52161114  0.31010566     0.15000
C531        C  0.19725740  0.44493656  0.32895591    -0.15900
H532        H  0.18637170  0.42827860  0.28568625     0.09300
H533        H  0.06027562  0.41725246  0.21933840     0.07200
H534        H  0.07993213  0.37600005  0.22494636     0.08400
H535        H  0.08093322  0.39445292  0.19717285     0.07400
H536        H  0.21806171  0.46420059  0.25749404     0.02300
H537        H  0.19523236  0.50320622  0.24994007     0.02800
H538        H  0.22219451  0.48184970  0.22967701     0.06300
H539        H  0.08524460  0.52802003  0.27388189     0.05300
H540        H  0.08105680  0.48754625  0.25961814    -0.00500
H541        H  0.11473229  0.51746403  0.25155038     0.01000
H542        H  0.18455891  0.42989751  0.34254663     0.04600
H543        H  0.21336894  0.46568301  0.33633834     0.06600
H544        H  0.21470783  0.42704813  0.31986531     0.07400
C545        C  0.15988901  0.39543158  0.03568419    -0.22200
C546        C  0.12861261  0.38685794  0.02538774     0.09800
C547        C  0.10011646  0.37758360  0.03893622     0.10200
C548        C  0.10312702  0.37861266  0.06258515    -0.17100
C549        C  0.13396120  0.38904454  0.07290640    -0.27500
C550        C  0.16305883  0.39641832  0.05921939     0.18500
C551        C  0.12579721  0.39075991  0.00051683     0.12500
C552        C  0.06630688  0.36769107  0.02839910    -0.11900
H553        H  0.08095234  0.37279206  0.07299486     0.12800
C554        C  0.19804477  0.40501076  0.06871058    -0.22700
H555        H  0.18182119  0.40210812  0.02525346     0.08400
C556        C  0.11955600  0.42331634  0.99077095     0.04700
C557        C  0.11910017  0.42676011  0.96723816    -0.19900
C558        C  0.12479503  0.39843762  0.95295585    -0.12200
C559        C  0.13068563  0.36559033  0.96280989     0.13500
C560        C  0.13109549  0.36222389  0.98648635    -0.22700
C561        C  0.11357257  0.45456607  0.00527113    -0.05700
H562        H  0.11438642  0.45192958  0.95995754     0.15000
C563        C  0.13784110  0.33425355  0.94864801    -0.15900
H564        H  0.13612479  0.33736712  0.99412349     0.09300
H565        H  0.20541082  0.43156531  0.06362828     0.07200
H566        H  0.21739897  0.38670712  0.06191899     0.08400
H567        H  0.19926826  0.40308539  0.08728868     0.07400
H568        H  0.06996301  0.34470500  0.01757115     0.02300
H569        H  0.05651042  0.38932393  0.01795628     0.02800
H570        H  0.04653681  0.36141299  0.04132296     0.06300
H571        H  0.10871447  0.47800793  0.99499750     0.05300
H572        H  0.13655609  0.45946600  0.01589020    -0.00500
H573        H  0.09084724  0.45022129  0.01630798     0.01000
H574        H  0.14338000  0.31123612  0.95918550     0.04600
H575        H  0.16059967  0.33901454  0.93769799     0.06600
H576        H  0.11505605  0.32818476  0.93811675     0.07400
C577        C  0.99093666  0.46912592  0.12302825    -0.22200
C578        C  0.96956075  0.45639149  0.14018723     0.09800
C579        C  0.98353848  0.43570625  0.15740012     0.10200
C580        C  0.01885950  0.42836746  0.15713944    -0.17100
C581        C  0.04042473  0.44069649  0.13984379    -0.27500
C582        C  0.02616667  0.46105412  0.12235173     0.18500
C583        C  0.93238718  0.46438651  0.13944899     0.12500
C584        C  0.96106369  0.42074778  0.17571083    -0.11900
H585        H  0.02964479  0.41235008  0.17033403     0.12800
C586        C  0.04635750  0.47296963  0.10203849    -0.22700
H587        H  0.97979394  0.48461827  0.10968782     0.08400
C588        C  0.91891351  0.49328081  0.15060940     0.04700
C589        C  0.88360356  0.50017251  0.14911253    -0.19900
C590        C  0.86130699  0.47935690  0.13626292    -0.12200
C591        C  0.87526900  0.45055289  0.12464116     0.13500
C592        C  0.91055713  0.44322790  0.12681409    -0.22700
C593        C  0.94190629  0.51713028  0.16380859    -0.05700
H594        H  0.87340214  0.52226646  0.15802814     0.15000
C595        C  0.85505880  0.42770043  0.10894322    -0.15900
H596        H  0.92140813  0.42128630  0.11803828     0.09300
H597        H  0.04682866  0.50155671  0.10153328     0.07200
H598        H  0.03366235  0.46340345  0.08651401     0.08400
H599        H  0.07319342  0.46350449  0.10164058     0.07400
H600        H  0.94096138  0.40407890  0.16812096     0.02300
H601        H  0.94840834  0.44171505  0.18530173     0.02800
H602        H  0.97616257  0.40489183  0.18775900     0.06300
H603        H  0.92719924  0.53873707  0.17138262     0.05300
H604        H  0.96188645  0.52823613  0.15251225    -0.00500
H605        H  0.95471237  0.50279223  0.17763583     0.01000
H606        H  0.86798853  0.42719543  0.09223891     0.04600
H607        H  0.82841562  0.43614210  0.10582188     0.06600
H608        H  0.85438890  0.40107026  0.11580599     0.07400
C609        C  0.55665943  0.29613758  0.39561934    -0.22200
C610        C  0.57906202  0.30142624  0.37736892     0.09800
C611        C  0.57705050  0.27954761  0.35848730     0.10200
C612        C  0.55385569  0.25187034  0.35880326    -0.17100
C613        C  0.53344471  0.24473135  0.37781251    -0.27500
C614        C  0.53405143  0.26782534  0.39625622     0.18500
C615        C  0.60931547  0.32418735  0.38049633     0.12500
C616        C  0.60127092  0.28367729  0.33876487    -0.11900
H617        H  0.55349566  0.23406729  0.34472809     0.12800
C618        C  0.51376353  0.26212308  0.41762813    -0.22700
H619        H  0.55878289  0.31267913  0.41026935     0.08400
C620        C  0.61127283  0.35796706  0.37173461     0.04700
C621        C  0.64252306  0.37633026  0.37339992    -0.19900
C622        C  0.67146708  0.36153705  0.38382127    -0.12200
C623        C  0.66838862  0.32859208  0.39400931     0.13500
C624        C  0.63758311  0.31025687  0.39187842    -0.22700
C625        C  0.58053472  0.37444945  0.36070007    -0.05700
H626        H  0.64471804  0.40170443  0.36589315     0.15000
C627        C  0.69667215  0.31198033  0.40764306    -0.15900
H628        H  0.63566193  0.28457582  0.39901436     0.09300
H629        H  0.49676500  0.28464463  0.42063992     0.07200
H630        H  0.53177714  0.25950139  0.43204122     0.08400
H631        H  0.49742470  0.23881714  0.41732402     0.07400
H632        H  0.62834632  0.28108997  0.34451375     0.02300
H633        H  0.59777368  0.30934867  0.33088378     0.02800
H634        H  0.59662352  0.26387762  0.32564151     0.06300
H635        H  0.58636645  0.40104505  0.35488502     0.05300
H636        H  0.55892041  0.37572161  0.37294373    -0.00500
H637        H  0.57227469  0.35917952  0.34591348     0.01000
H638        H  0.68660362  0.30515775  0.42460445     0.04600
H639        H  0.71914169  0.32897137  0.41032253     0.06600
H640        H  0.70546701  0.28809984  0.39914996     0.07400
C641        C  0.35119875  0.61987514  0.39390980    -0.22200
C642        C  0.32597491  0.61370404  0.37752379     0.09800
C643        C  0.32283341  0.63648185  0.35907704     0.10200
C644        C  0.34418199  0.66552177  0.35789487    -0.17100
C645        C  0.36742468  0.67343258  0.37522935    -0.27500
C646        C  0.37162563  0.64980860  0.39328925     0.18500
C647        C  0.29763816  0.58952979  0.38293547     0.12500
C648        C  0.29483703  0.63206422  0.34171347    -0.11900
H649        H  0.34082435  0.68366563  0.34416688     0.12800
C650        C  0.39467831  0.65636717  0.41324060    -0.22700
H651        H  0.35281164  0.60279830  0.40834181     0.08400
C652        C  0.29371738  0.55713935  0.37248363     0.04700
C653        C  0.26254359  0.53895404  0.37530013    -0.19900
C654        C  0.23575468  0.55261610  0.38846816    -0.12200
C655        C  0.24124306  0.58354721  0.40049205     0.13500
C656        C  0.27196672  0.60165238  0.39743333    -0.22700
C657        C  0.32219166  0.54203799  0.35839059    -0.05700
H658        H  0.25842791  0.51502227  0.36633238     0.15000
C659        C  0.21509643  0.59850199  0.41650780    -0.15900
H660        H  0.27539408  0.62624248  0.40578437     0.09300
H661        H  0.41399199  0.63538236  0.41455238     0.07200
H662        H  0.37892225  0.65661613  0.42887836     0.08400
H663        H  0.40867242  0.68110924  0.41242408     0.07400
H664        H  0.26917908  0.63263088  0.35000606     0.02300
H665        H  0.29796016  0.60722236  0.33281583     0.02800
H666        H  0.29543149  0.65291211  0.32886552     0.06300
H667        H  0.31492399  0.51645962  0.35152808     0.05300
H668        H  0.34557713  0.53875447  0.36890888    -0.00500
H669        H  0.32847939  0.55924551  0.34403819     0.01000
H670        H  0.22703973  0.60200770  0.43332853     0.04600
H671        H  0.19240649  0.58164653  0.41883103     0.06600
H672        H  0.20626533  0.62392523  0.41015333     0.07400
C673        C  0.46493328  0.92090812  0.37111076    -0.22200
C674        C  0.44314383  0.94168297  0.38415152     0.09800
C675        C  0.41477622  0.92688482  0.39538096     0.10200
C676        C  0.40863883  0.89150578  0.39320367    -0.17100
C677        C  0.43009654  0.87057087  0.37995629    -0.27500
C678        C  0.45855583  0.88550194  0.36858993     0.18500
C679        C  0.44980275  0.97913708  0.38521543     0.12500
C680        C  0.39100373  0.94847117  0.40961233    -0.11900
H681        H  0.38680858  0.88007022  0.40187092     0.12800
C682        C  0.48155042  0.86568440  0.35276144    -0.22700
H683        H  0.48650538  0.93262479  0.36233374     0.08400
C684        C  0.47395885  0.99297709  0.40037149     0.04700
C685        C  0.48013737  0.02855966  0.40023651    -0.19900
C686        C  0.46270785  0.05055491  0.38528426    -0.12200
C687        C  0.43828314  0.03662143  0.37015463     0.13500
C688        C  0.43190356  0.00102884  0.37051949    -0.22700
C689        C  0.49334609  0.97015469  0.41651477    -0.05700
H690        H  0.49912775  0.03925815  0.41159980     0.15000
C691        C  0.41993331  0.05784494  0.35257542    -0.15900
H692        H  0.41350152  0.99010717  0.35884037     0.09300
H693        H  0.50832309  0.86574338  0.35930676     0.07200
H694        H  0.48135584  0.87827485  0.33594039     0.08400
H695        H  0.47336827  0.83866920  0.35025476     0.07400
H696        H  0.37878173  0.96867970  0.39905688     0.02300
H697        H  0.40583471  0.96092346  0.42333428     0.02800
H698        H  0.37020538  0.93274275  0.41739076     0.06300
H699        H  0.51115312  0.98520024  0.42732044     0.05300
H700        H  0.50881150  0.95105343  0.40698072    -0.00500
H701        H  0.47487714  0.95632871  0.42762845     0.01000
H702        H  0.42585294  0.04746272  0.33559227     0.04600
H703        H  0.42749881  0.08532370  0.35254804     0.06600
H704        H  0.39169798  0.05630833  0.35543306     0.07400
C705        C  0.58693275  0.28642381  0.62147639    -0.22200
C706        C  0.57854467  0.31129551  0.63756625     0.09800
C707        C  0.54862126  0.30722130  0.65084767     0.10200
C708        C  0.52901414  0.27683383  0.64879186    -0.17100
C709        C  0.53908953  0.25069430  0.63385301    -0.27500
C710        C  0.56765646  0.25619819  0.61940027     0.18500
C711        C  0.60436381  0.33859194  0.64169309     0.12500
C712        C  0.53788357  0.33456687  0.66734776    -0.11900
H713        H  0.50694388  0.27269446  0.65966827     0.12800
C714        C  0.57899714  0.23069225  0.60175399    -0.22700
H715        H  0.60971334  0.28993945  0.61111122     0.08400
C716        C  0.63117725  0.33290762  0.65720854     0.04700
C717        C  0.66000679  0.35454896  0.65685926    -0.19900
C718        C  0.66353275  0.38111662  0.64084058    -0.12200
C719        C  0.63530059  0.38841465  0.62632915     0.13500
C720        C  0.60613266  0.36683870  0.62699526    -0.22700
C721        C  0.63067654  0.30240760  0.67302416    -0.05700
H722        H  0.68105748  0.34919259  0.66829341     0.15000
C723        C  0.63499878  0.41683828  0.60897414    -0.15900
H724        H  0.58548075  0.37083780  0.61502094     0.09300
H725        H  0.60543572  0.22155765  0.60561759     0.07200
H726        H  0.57919477  0.24345185  0.58498924     0.08400
H727        H  0.56190752  0.20798928  0.60050994     0.07400
H728        H  0.53324310  0.35911571  0.65821228     0.02300
H729        H  0.55836752  0.33871394  0.68004708     0.02800
H730        H  0.51384449  0.32733911  0.67637929     0.06300
H731        H  0.65407431  0.30146106  0.68374222     0.05300
H732        H  0.62950585  0.27810667  0.66323848    -0.00500
H733        H  0.60794220  0.30383744  0.68430922     0.01000
H734        H  0.63279787  0.40546656  0.59189542     0.04600
H735        H  0.65789459  0.43355181  0.60916322     0.06600
H736        H  0.61231919  0.43365547  0.61194265     0.07400
C737        C  0.51541772  0.17926500  0.53163873    -0.22200
C738        C  0.52384795  0.14793591  0.52142639     0.09800
C739        C  0.53212466  0.11923451  0.53503972     0.10200
C740        C  0.53023990  0.12218097  0.55866814    -0.17100
C741        C  0.51968687  0.15305278  0.56887288    -0.27500
C742        C  0.51333461  0.18231819  0.55512163     0.18500
C743        C  0.52064430  0.14538416  0.49653721     0.12500
C744        C  0.54163500  0.08527608  0.52457120    -0.11900
H745        H  0.53520405  0.09980716  0.56914081     0.12800
C746        C  0.50438283  0.21730609  0.56446081    -0.22700
H747        H  0.50945614  0.20136714  0.52112337     0.08400
C748        C  0.48820442  0.14012200  0.48647434     0.04700
C749        C  0.48538380  0.14047663  0.46293069    -0.19900
C750        C  0.51419742  0.14604547  0.44895173    -0.12200
C751        C  0.54690251  0.15095728  0.45911726     0.13500
C752        C  0.54965283  0.15055125  0.48280910    -0.22700
C753        C  0.45642615  0.13436855  0.50064401    -0.05700
H754        H  0.46028869  0.13646103  0.45539280     0.15000
C755        C  0.57872606  0.15795408  0.44527992    -0.15900
H756        H  0.57442243  0.15492422  0.49071082     0.09300
H757        H  0.47813042  0.22472381  0.55887160     0.07200
H758        H  0.52308386  0.23664537  0.55800955     0.08400
H759        H  0.50529926  0.21853287  0.58305709     0.07400
H760        H  0.56500642  0.08852166  0.51396322     0.02300
H761        H  0.52010932  0.07592004  0.51392074     0.02800
H762        H  0.54711466  0.06535934  0.53754412     0.06300
H763        H  0.43316153  0.13029325  0.49011847     0.05300
H764        H  0.45173018  0.15713051  0.51149522    -0.00500
H765        H  0.45996307  0.11124515  0.51143826     0.01000
H766        H  0.57467938  0.18111086  0.43457861     0.04600
H767        H  0.58461075  0.13538657  0.43451411     0.06600
H768        H  0.60158034  0.16275619  0.45605764     0.07400
C769        C  0.31645376  0.64116216  0.61714839    -0.22200
C770        C  0.32174303  0.62037023  0.63612035     0.09800
C771        C  0.34907446  0.62808461  0.65096324     0.10200
C772        C  0.36789416  0.65885912  0.64789406    -0.17100
C773        C  0.35997322  0.68149869  0.63014758    -0.27500
C774        C  0.33526914  0.67153526  0.61392256     0.18500
C775        C  0.29424474  0.59515972  0.64176445     0.12500
C776        C  0.35774404  0.60426709  0.67018443    -0.11900
H777        H  0.38715797  0.66627853  0.66012635     0.12800
C778        C  0.32717984  0.69300425  0.59340702    -0.22700
H779        H  0.29590399  0.63484754  0.60553459     0.08400
C780        C  0.26670634  0.60505935  0.65583157     0.04700
C781        C  0.23715372  0.58442908  0.65697267    -0.19900
C782        C  0.23328457  0.55472484  0.64364398    -0.12200
C783        C  0.26195699  0.54368857  0.63042547     0.13500
C784        C  0.29197320  0.56420102  0.62977611    -0.22700
C785        C  0.26721630  0.63888616  0.66832181    -0.05700
H786        H  0.21585921  0.59292487  0.66742052     0.15000
C787        C  0.26223108  0.51203765  0.61573206    -0.15900
H788        H  0.31312033  0.55696804  0.61878589     0.09300
H789        H  0.29997097  0.70173451  0.59412921     0.07200
H790        H  0.33093608  0.67724845  0.57801707     0.08400
H791        H  0.34397876  0.71592000  0.59181495     0.07400
H792        H  0.36482172  0.57859177  0.66341352     0.02300
H793        H  0.33536390  0.60122494  0.68164610     0.02800
H794        H  0.37979562  0.61410513  0.68018038     0.06300
H795        H  0.24309676  0.64309433  0.67802131     0.05300
H796        H  0.27004550  0.66053619  0.65619387    -0.00500
H797        H  0.28895278  0.63949508  0.68037920     0.01000
H798        H  0.26642151  0.51982899  0.59792140     0.04600
H799        H  0.23861488  0.49642251  0.61636823     0.06600
H800        H  0.28381321  0.49504532  0.62094456     0.07400
C801        C  0.35538201  0.80793527  0.52703094    -0.22200
C802        C  0.36720454  0.77888969  0.51533845     0.09800
C803        C  0.37903001  0.75003455  0.52754769     0.10200
C804        C  0.38006417  0.75137456  0.55112860    -0.17100
C805        C  0.36958590  0.78086444  0.56294518    -0.27500
C806        C  0.35655916  0.80946285  0.55071669     0.18500
C807        C  0.37091969  0.78033827  0.49043898     0.12500
C808        C  0.39138814  0.71811830  0.51561873    -0.11900
H809        H  0.39002581  0.72943284  0.56045342     0.12800
C810        C  0.34578556  0.84271733  0.56173493    -0.22700
H811        H  0.34659773  0.83021651  0.51754093     0.08400
C812        C  0.34427695  0.77027251  0.47573569     0.04700
C813        C  0.35065290  0.76911570  0.45238152    -0.19900
C814        C  0.38323577  0.77742424  0.44344692    -0.12200
C815        C  0.40948211  0.78882481  0.45830100     0.13500
C816        C  0.40288762  0.79010203  0.48153385    -0.22700
C817        C  0.30939736  0.76033867  0.48478138    -0.05700
H818        H  0.33032826  0.76083472  0.44109642     0.15000
C819        C  0.44430385  0.80049280  0.44988563    -0.15900
H820        H  0.42311503  0.79812534  0.49299280     0.09300
H821        H  0.31819858  0.84773982  0.55806918     0.07200
H822        H  0.36142133  0.86425849  0.55479067     0.08400
H823        H  0.34926038  0.84280844  0.58020746     0.07400
H824        H  0.41375045  0.72448374  0.50468885     0.02300
H825        H  0.37032688  0.70749062  0.50509198     0.02800
H826        H  0.39954793  0.69780148  0.52769015     0.06300
H827        H  0.29141533  0.75304543  0.47106481     0.05300
H828        H  0.29805883  0.78239188  0.49406447    -0.00500
H829        H  0.31191372  0.73804119  0.49640775     0.01000
H830        H  0.46047545  0.81090721  0.46370673     0.04600
H831        H  0.44108831  0.82119747  0.43711174     0.06600
H832        H  0.45847899  0.77849146  0.44242897     0.07400
C833        C  0.39913669  0.94326121  0.62834726    -0.22200
C834        C  0.43365723  0.95252993  0.62554891     0.09800
C835        C  0.45864064  0.92668777  0.62224129     0.10200
C836        C  0.44859113  0.89185584  0.62255726    -0.17100
C837        C  0.41399677  0.88215833  0.62606210    -0.27500
C838        C  0.38878957  0.90860562  0.62850415     0.18500
C839        C  0.44301137  0.98946405  0.62743247     0.12500
C840        C  0.49585382  0.93594101  0.61828001    -0.11900
H841        H  0.46800492  0.87216541  0.62033536     0.12800
C842        C  0.35084165  0.90118987  0.63129158    -0.22700
H843        H  0.38022196  0.96341662  0.63077477     0.08400
C844        C  0.43673128  0.01315544  0.60982861     0.04700
C845        C  0.44508635  0.04807491  0.61288345    -0.19900
C846        C  0.45968722  0.05968772  0.63309115    -0.12200
C847        C  0.46501953  0.03602376  0.65094997     0.13500
C848        C  0.45679197  0.00120176  0.64779986    -0.22700
C849        C  0.42207617  0.00139290  0.58768210    -0.05700
H850        H  0.44134203  0.06619458  0.59914762     0.15000
C851        C  0.47841516  0.04665039  0.67373879    -0.15900
H852        H  0.46080985  0.98302572  0.66147596     0.09300
H853        H  0.34134210  0.88609159  0.61670808     0.07200
H854        H  0.33530909  0.92517669  0.63210067     0.08400
H855        H  0.34622427  0.88690142  0.64723283     0.07400
H856        H  0.50618664  0.94995490  0.63306845     0.02300
H857        H  0.49802509  0.95262229  0.60311374     0.02800
H858        H  0.51199926  0.91271169  0.61555821     0.06300
H859        H  0.41951175  0.02307317  0.57554931     0.05300
H860        H  0.39614095  0.99002255  0.59034929    -0.00500
H861        H  0.43928284  0.98173136  0.58009963     0.01000
H862        H  0.45981811  0.03850977  0.68696707     0.04600
H863        H  0.48182386  0.07485187  0.67544014     0.06600
H864        H  0.50352766  0.03389382  0.67695100     0.07400
C865        C  0.54075704  0.62134126  0.86350637    -0.22200
C866        C  0.57133817  0.61897312  0.87602760     0.09800
C867        C  0.58222544  0.64737140  0.88900813     0.10200
C868        C  0.56233844  0.67737275  0.88921807    -0.17100
C869        C  0.53232380  0.68037388  0.87624886    -0.27500
C870        C  0.52113828  0.65190565  0.86330001     0.18500
C871        C  0.59468872  0.58911221  0.87310203     0.12500
C872        C  0.61599455  0.64692585  0.90159139    -0.11900
H873        H  0.57109159  0.69934361  0.89889982     0.12800
C874        C  0.49018639  0.65347539  0.84807292    -0.22700
H875        H  0.53300382  0.59981701  0.85308467     0.08400
C876        C  0.59936588  0.56431958  0.89028458     0.04700
C877        C  0.62930446  0.54388403  0.89022355    -0.19900
C878        C  0.65421573  0.54780000  0.87324101    -0.12200
C879        C  0.64698718  0.56923353  0.85450180     0.13500
C880        C  0.61744706  0.58988342  0.85479457    -0.22700
C881        C  0.57342704  0.56049583  0.90901994    -0.05700
H882        H  0.63445979  0.52678257  0.90430872     0.15000
C883        C  0.67033992  0.57160220  0.83421386    -0.15900
H884        H  0.61335022  0.60839861  0.84132012     0.09300
H885        H  0.47127531  0.63349163  0.85327204     0.07200
H886        H  0.49832557  0.64840288  0.83044847     0.08400
H887        H  0.47709618  0.67879711  0.84834495     0.07400
H888        H  0.63755821  0.64248496  0.88963287     0.02300
H889        H  0.61591593  0.62620142  0.91446976     0.02800
H890        H  0.62090426  0.67168117  0.91035780     0.06300
H891        H  0.58097671  0.53993767  0.92108441     0.05300
H892        H  0.54798142  0.55362710  0.90179437    -0.00500
H893        H  0.57086504  0.58494230  0.91848954     0.01000
H894        H  0.65532381  0.56576400  0.81878469     0.04600
H895        H  0.69200306  0.55306114  0.83482956     0.06600
H896        H  0.68098120  0.59808256  0.83279901     0.07400
C897        C  0.42676983  0.79585607  0.78172891    -0.22200
C898        C  0.44509542  0.77746894  0.76535478     0.09800
C899        C  0.47507849  0.75921758  0.77172657     0.10200
C900        C  0.48595297  0.75975859  0.79434567    -0.17100
C901        C  0.46732370  0.77780611  0.81079011    -0.27500
C902        C  0.43745726  0.79638748  0.80430687     0.18500
C903        C  0.43319312  0.77894703  0.74151477     0.12500
C904        C  0.49511914  0.73849545  0.75477336    -0.11900
H905        H  0.50866562  0.74543433  0.79931701     0.12800
C906        C  0.41677529  0.81809478  0.82045939    -0.22700
H907        H  0.40417513  0.81040224  0.77676791     0.08400
C908        C  0.40309491  0.76178576  0.73419025     0.04700
C909        C  0.39324811  0.76400608  0.71140155    -0.19900
C910        C  0.41287341  0.78288110  0.69574940    -0.12200
C911        C  0.44229549  0.80115587  0.70335697     0.13500
C912        C  0.45213715  0.79867419  0.72604374    -0.22700
C913        C  0.38193605  0.74033864  0.75025035    -0.05700
H914        H  0.37072532  0.75010142  0.70563882     0.15000
C915        C  0.46339092  0.82450104  0.68834046    -0.15900
H916        H  0.47467145  0.81259669  0.73179683     0.09300
H917        H  0.39018462  0.80769278  0.82176054     0.07200
H918        H  0.41550048  0.84496856  0.81404848     0.08400
H919        H  0.42792812  0.81926439  0.83756218     0.07400
H920        H  0.50550509  0.75566330  0.74141807     0.02300
H921        H  0.47801187  0.71891232  0.74701831     0.02800
H922        H  0.51717507  0.72488148  0.76267831     0.06300
H923        H  0.35987071  0.72780914  0.74164345     0.05300
H924        H  0.37145238  0.75680599  0.76387661    -0.00500
H925        H  0.39826221  0.71984699  0.75775396     0.01000
H926        H  0.46475109  0.85056832  0.69595162     0.04600
H927        H  0.45242354  0.82781942  0.67128465     0.06600
H928        H  0.48993251  0.81413058  0.68675381     0.07400
C929        C  0.26230981  0.33932972  0.86625434    -0.22200
C930        C  0.27988584  0.33615290  0.88671536     0.09800
C931        C  0.27131956  0.35800322  0.90484168     0.10200
C932        C  0.24302609  0.38040454  0.90271645    -0.17100
C933        C  0.22336904  0.38106686  0.88289314    -0.27500
C934        C  0.23420225  0.36160533  0.86407089     0.18500
C935        C  0.30323720  0.30631974  0.88940185     0.12500
C936        C  0.29133132  0.35684133  0.92653341    -0.11900
H937        H  0.23474321  0.39547297  0.91707647     0.12800
C938        C  0.21607690  0.36298836  0.84163961    -0.22700
H939        H  0.26936093  0.32287675  0.85225787     0.08400
C940        C  0.29042800  0.27480882  0.89783925     0.04700
C941        C  0.31118047  0.24542477  0.89682046    -0.19900
C942        C  0.34420010  0.24628845  0.88708791    -0.12200
C943        C  0.35749768  0.27821682  0.87921933     0.13500
C944        C  0.33669589  0.30783924  0.88052098    -0.22700
C945        C  0.25411172  0.27165265  0.90676533    -0.05700
H946        H  0.30097328  0.22110100  0.90299024     0.15000
C947        C  0.39229711  0.28209246  0.86822662    -0.15900
H948        H  0.34611823  0.33206235  0.87369293     0.09300
H949        H  0.20511879  0.33728043  0.83768824     0.07200
H950        H  0.23485065  0.37018225  0.82829191     0.08400
H951        H  0.19502116  0.38222718  0.84115541     0.07400
H952        H  0.31873026  0.36323567  0.92310888     0.02300
H953        H  0.28993268  0.33077292  0.93416877     0.02800
H954        H  0.28121292  0.37560156  0.93898600     0.06300
H955        H  0.24813187  0.24493375  0.91228309     0.05300
H956        H  0.23545252  0.27884777  0.89341389    -0.00500
H957        H  0.25043030  0.28884666  0.92144448     0.01000
H958        H  0.38897084  0.29139201  0.85065453     0.04600
H959        H  0.40723772  0.25796672  0.86763373     0.06600
H960        H  0.40775247  0.30129668  0.87766720     0.07400
C961        C  0.47821751  0.14978636  0.74161266    -0.22200
C962        C  0.44580411  0.16399683  0.74637811     0.09800
C963        C  0.42624317  0.17818431  0.72868046     0.10200
C964        C  0.43909937  0.17703731  0.70655823    -0.17100
C965        C  0.47127221  0.16203939  0.70141270    -0.27500
C966        C  0.49129188  0.14861872  0.71943922     0.18500
C967        C  0.43247425  0.16312513  0.76993873     0.12500
C968        C  0.39140815  0.19394200  0.73307057    -0.11900
H969        H  0.42351844  0.18773820  0.69314629     0.12800
C970        C  0.52615525  0.13259576  0.71567035    -0.22700
H971        H  0.49319433  0.13919286  0.75536045     0.08400
C972        C  0.41842517  0.13276981  0.77941384     0.04700
C973        C  0.40630874  0.13306157  0.80177856    -0.19900
C974        C  0.40796551  0.16301795  0.81495667    -0.12200
C975        C  0.42077270  0.19378562  0.80509975     0.13500
C976        C  0.43323744  0.19331755  0.78284467    -0.22700
C977        C  0.41624896  0.10006106  0.76591013    -0.05700
H978        H  0.39650650  0.10951920  0.80923793     0.15000
C979        C  0.42057766  0.22781054  0.81721979    -0.15900
H980        H  0.44333971  0.21676566  0.77542369     0.09300
H981        H  0.52374480  0.11001092  0.70435533     0.07200
H982        H  0.53784029  0.12346804  0.73167021     0.08400
H983        H  0.54396392  0.15188324  0.70816963     0.07400
H984        H  0.39407424  0.21621149  0.74462019     0.02300
H985        H  0.37408342  0.17447287  0.74085630     0.02800
H986        H  0.37915490  0.20328730  0.71731081     0.06300
H987        H  0.40415744  0.07882354  0.77570325     0.05300
H988        H  0.44247341  0.09167729  0.76086187    -0.00500
H989        H  0.40053202  0.10455726  0.75057710     0.01000
H990        H  0.44742169  0.23693860  0.81963988     0.04600
H991        H  0.40763088  0.22636198  0.83379539     0.06600
H992        H  0.40633698  0.24711538  0.80701727     0.07400
C993        C  0.46012037  0.00680332  0.88856811    -0.22200
C994        C  0.44045555  0.98454215  0.87522169     0.09800
C995        C  0.41313617  0.99779348  0.86233273     0.10200
C996        C  0.40534019  0.03295199  0.86365111    -0.17100
C997        C  0.42414892  0.05546311  0.87757854    -0.27500
C998        C  0.45240549  0.04210873  0.89006979     0.18500
C999        C  0.44846382  0.94724891  0.87537382     0.12500
C1000       C  0.39224140  0.97479616  0.84717760    -0.11900
H1001       H  0.38403999  0.04289783  0.85379760     0.12800
C1002       C  0.47436235  0.06304483  0.90589533    -0.22700
H1003       H  0.48124993  0.99630552  0.89835022     0.08400
C1004       C  0.47552660  0.93374909  0.86235424     0.04700
C1005       C  0.48258775  0.89840662  0.86344624    -0.19900
C1006       C  0.46349192  0.87596138  0.87742075    -0.12200
C1007       C  0.43608353  0.88977097  0.89050174     0.13500
C1008       C  0.42882367  0.92518644  0.88901762    -0.22700
C1009       C  0.49680047  0.95664397  0.84721005    -0.05700
H1010       H  0.50337183  0.88823055  0.85319591     0.15000
C1011       C  0.41467508  0.86914665  0.90694284    -0.15900
H1012       H  0.40804910  0.93593115  0.89904713     0.09300
H1013       H  0.50151973  0.06259279  0.89998716     0.07200
H1014       H  0.47321592  0.05143742  0.92300191     0.08400
H1015       H  0.46654118  0.09016679  0.90760058     0.07400
H1016       H  0.37938623  0.95441397  0.85730523     0.02300
H1017       H  0.40938293  0.96256677  0.83452615     0.02800
H1018       H  0.37201467  0.98939838  0.83802459     0.06300
H1019       H  0.51676209  0.94185299  0.83793784     0.05300
H1020       H  0.51002995  0.97660313  0.85738366    -0.00500
H1021       H  0.47987455  0.96941358  0.83466404     0.01000
H1022       H  0.41610695  0.88129422  0.92383148     0.04600
H1023       H  0.42304441  0.84225540  0.90913564     0.06600
H1024       H  0.38738291  0.86911398  0.90136963     0.07400
C1025       C  0.58077837  0.63554212  0.15224778    -0.22200
C1026       C  0.57773295  0.61303463  0.13398175     0.09800
C1027       C  0.55180377  0.61864131  0.11776550     0.10200
C1028       C  0.53190422  0.64886628  0.11889485    -0.17100
C1029       C  0.53760052  0.67328418  0.13591483    -0.27500
C1030       C  0.56072072  0.66539936  0.15360203     0.18500
C1031       C  0.60600755  0.58810921  0.13037113     0.12500
C1032       C  0.54601621  0.59332215  0.09897973    -0.11900
H1033       H  0.51360738  0.65451508  0.10563240     0.12800
C1034       C  0.56526459  0.68807241  0.17397566    -0.22700
H1035       H  0.60026127  0.63072700  0.16493832     0.08400
C1036       C  0.63481293  0.59782068  0.11726627     0.04700
C1037       C  0.66420319  0.57706535  0.11742338    -0.19900
C1038       C  0.66600904  0.54729947  0.13080069    -0.12200
C1039       C  0.63677200  0.53673423  0.14331706     0.13500
C1040       C  0.60691494  0.55732402  0.14284235    -0.22700
C1041       C  0.63555141  0.63132484  0.10429666    -0.05700
H1042       H  0.68673245  0.58513151  0.10796253     0.15000
C1043       C  0.63681952  0.50545522  0.15839564    -0.15900
H1044       H  0.58495486  0.55033181  0.15317383     0.09300
H1045       H  0.59177276  0.69884367  0.17413508     0.07200
H1046       H  0.56132313  0.67248413  0.18948333     0.08400
H1047       H  0.54650885  0.70955435  0.17464234     0.07400
H1048       H  0.53922690  0.56779638  0.10622035     0.02300
H1049       H  0.56965259  0.59060422  0.08861695     0.02800
H1050       H  0.52471389  0.60160434  0.08774319     0.06300
H1051       H  0.66045776  0.63517358  0.09539114     0.05300
H1052       H  0.63186754  0.65327991  0.11599802    -0.00500
H1053       H  0.61480762  0.63167598  0.09149661     0.01000
H1054       H  0.63153346  0.51340317  0.17601705     0.04600
H1055       H  0.66164418  0.49143152  0.15823360     0.06600
H1056       H  0.61632909  0.48737349  0.15290917     0.07400
C1057       C  0.48479287  0.78489703  0.23387225    -0.22200
C1058       C  0.45342384  0.76946194  0.23982063     0.09800
C1059       C  0.43251158  0.75524456  0.22285139     0.10200
C1060       C  0.44374322  0.75623782  0.20033321    -0.17100
C1061       C  0.47539294  0.77145852  0.19409653    -0.27500
C1062       C  0.49609764  0.78623733  0.21131802     0.18500
C1063       C  0.44276636  0.76897404  0.26391873     0.12500
C1064       C  0.39812765  0.73934263  0.22851516    -0.11900
H1065       H  0.42744165  0.74495197  0.18749063     0.12800
C1066       C  0.52989755  0.80384216  0.20631981    -0.22700
H1067       H  0.50054923  0.79604554  0.24707179     0.08400
C1068       C  0.45104737  0.74117011  0.27827450     0.04700
C1069       C  0.44099165  0.74224918  0.30103956    -0.19900
C1070       C  0.42310926  0.77065320  0.30992387    -0.12200
C1071       C  0.41560832  0.79894239  0.29555657     0.13500
C1072       C  0.42503213  0.79739274  0.27268653    -0.22700
C1073       C  0.47093455  0.71061173  0.26963385    -0.05700
H1074       H  0.44723076  0.72080620  0.31201137     0.15000
C1075       C  0.39962621  0.83202187  0.30377094    -0.15900
H1076       H  0.41931791  0.81897946  0.26170391     0.09300
H1077       H  0.54833713  0.78513753  0.19896043     0.07200
H1078       H  0.54191334  0.81448253  0.22178011     0.08400
H1079       H  0.52571244  0.82563260  0.19448378     0.07400
H1080       H  0.38128001  0.75889959  0.23653679     0.02300
H1081       H  0.40164749  0.71742767  0.24031832     0.02800
H1082       H  0.38483003  0.72955949  0.21326681     0.06300
H1083       H  0.47543460  0.69118673  0.28307813     0.05300
H1084       H  0.49637047  0.71922739  0.26313337    -0.00500
H1085       H  0.45649168  0.69795116  0.25583528     0.01000
H1086       H  0.41680841  0.85395208  0.29940142     0.04600
H1087       H  0.39575249  0.83288456  0.32220988     0.06600
H1088       H  0.37437546  0.83593360  0.29540310     0.07400
C1089       C  0.51976026  0.74260482  0.02406675    -0.22200
C1090       C  0.53275692  0.77287051  0.01429897     0.09800
C1091       C  0.54465677  0.79958250  0.02837716     0.10200
C1092       C  0.54165346  0.79610155  0.05191397    -0.17100
C1093       C  0.52634992  0.76679436  0.06167262    -0.27500
C1094       C  0.51675551  0.73901811  0.04754675     0.18500
C1095       C  0.52990771  0.77730628  0.98946312     0.12500
C1096       C  0.55969335  0.83206447  0.01851352    -0.11900
H1097       H  0.54973773  0.81709401  0.06265670     0.12800
C1098       C  0.50380234  0.70503694  0.05657828    -0.22700
H1099       H  0.51111789  0.72187989  0.01324038     0.08400
C1100       C  0.55388953  0.76295232  0.97422758     0.04700
C1101       C  0.54774526  0.76532306  0.95086571    -0.19900
C1102       C  0.51781741  0.78117271  0.94249648    -0.12200
C1103       C  0.49459826  0.79671797  0.95784489     0.13500
C1104       C  0.50099965  0.79460424  0.98106621    -0.22700
C1105       C  0.58562645  0.74485908  0.98267719    -0.05700
H1106       H  0.56568089  0.75359939  0.93913804     0.15000
C1107       C  0.46331332  0.81618280  0.94985409    -0.15900
H1108       H  0.48286081  0.80586315  0.99286363     0.09300
H1109       H  0.52017734  0.68388739  0.04996738     0.07200
H1110       H  0.47686853  0.70079517  0.05096739     0.08400
H1111       H  0.50471860  0.70331737  0.07518377     0.07400
H1112       H  0.54021919  0.84518774  0.00785805     0.02300
H1113       H  0.58251931  0.82562833  0.00804712     0.02800
H1114       H  0.56794599  0.85031903  0.03183271     0.06300
H1115       H  0.60183457  0.73526371  0.96859092     0.05300
H1116       H  0.57811919  0.72250294  0.99331017    -0.00500
H1117       H  0.60132341  0.76295360  0.99285246     0.01000
H1118       H  0.44504268  0.79847245  0.94140836     0.04600
H1119       H  0.47135582  0.83681054  0.93795952     0.06600
H1120       H  0.44931233  0.82850210  0.96403592     0.07400
C1121       C  0.34840939  0.29862308  0.12685036    -0.22200
C1122       C  0.32130095  0.30085787  0.14236799     0.09800
C1123       C  0.31700257  0.27471324  0.15864323     0.10200
C1124       C  0.33835795  0.24569558  0.15794889    -0.17100
C1125       C  0.36363433  0.24167054  0.14114655    -0.27500
C1126       C  0.37004807  0.26957532  0.12612626     0.18500
C1127       C  0.29357463  0.32633451  0.13855235     0.12500
C1128       C  0.28831122  0.27626799  0.17578890    -0.11900
H1129       H  0.33378351  0.22487237  0.16982356     0.12800
C1130       C  0.39769289  0.26957628  0.10829473    -0.22700
H1131       H  0.35152415  0.31889608  0.11437707     0.08400
C1132       C  0.29092360  0.35732724  0.15079631     0.04700
C1133       C  0.26033597  0.37672425  0.14941537    -0.19900
C1134       C  0.23277778  0.36558007  0.13597901    -0.12200
C1135       C  0.23708665  0.33631499  0.12205455     0.13500
C1136       C  0.26724691  0.31691754  0.12375899    -0.22700
C1137       C  0.32001515  0.36938353  0.16551732    -0.05700
H1138       H  0.25723048  0.39953194  0.15975040     0.15000
C1139       C  0.21042505  0.32457251  0.10526596    -0.15900
H1140       H  0.26978162  0.29343536  0.11398096     0.09300
H1141       H  0.41436679  0.29257140  0.11052710     0.07200
H1142       H  0.38558531  0.27101409  0.09138991     0.08400
H1143       H  0.41470113  0.24691699  0.10880278     0.07400
H1144       H  0.26299800  0.27718416  0.16713940     0.02300
H1145       H  0.29122615  0.29957206  0.18637808     0.02800
H1146       H  0.28838221  0.25343392  0.18710791     0.06300
H1147       H  0.31382736  0.39420578  0.17385477     0.05300
H1148       H  0.34351362  0.37312937  0.15509637    -0.00500
H1149       H  0.32547094  0.35000040  0.17879130     0.01000
H1150       H  0.22243573  0.32274294  0.08831676     0.04600
H1151       H  0.18841286  0.34247980  0.10371068     0.06600
H1152       H  0.20051857  0.29878116  0.11019721     0.07400
C1153       C  0.44555472  0.17276171  0.28224542    -0.22200
C1154       C  0.45325193  0.14313512  0.26980272     0.09800
C1155       C  0.47163625  0.11601211  0.28012489     0.10200
C1156       C  0.48140596  0.11888445  0.30285371    -0.17100
C1157       C  0.47304186  0.14822476  0.31553917    -0.27500
C1158       C  0.45517755  0.17569943  0.30497560     0.18500
C1159       C  0.44324968  0.14191255  0.24565823     0.12500
C1160       C  0.48068161  0.08398312  0.26715983    -0.11900
H1161       H  0.49500041  0.09781624  0.31089020     0.12800
C1162       C  0.44721111  0.20868115  0.31728323    -0.22700
H1163       H  0.43203308  0.19373990  0.27405376     0.08400
C1164       C  0.41008702  0.13164774  0.23871419     0.04700
C1165       C  0.40183658  0.13183376  0.21561983    -0.19900
C1166       C  0.42595158  0.14225986  0.19915347    -0.12200
C1167       C  0.45941046  0.15259164  0.20642831     0.13500
C1168       C  0.46740872  0.15217288  0.22950452    -0.22700
C1169       C  0.38346615  0.12049919  0.25572518    -0.05700
H1170       H  0.37628694  0.12392450  0.21047516     0.15000
C1171       C  0.48716109  0.16441376  0.19033106    -0.15900
H1172       H  0.49274158  0.16015095  0.23509790     0.09300
H1173       H  0.42871147  0.20368193  0.33117315     0.07200
H1174       H  0.43539912  0.22819635  0.30597430     0.08400
H1175       H  0.47132757  0.21982132  0.32420518     0.07400
H1176       H  0.49727795  0.09080320  0.25256203     0.02300
H1177       H  0.45679353  0.07145883  0.26097343     0.02800
H1178       H  0.49480788  0.06509591  0.27775768     0.06300
H1179       H  0.35885623  0.11305819  0.24755461     0.05300
H1180       H  0.37809288  0.14193493  0.26755880    -0.00500
H1181       H  0.39314398  0.09796410  0.26536925     0.01000
H1182       H  0.51133167  0.17139581  0.19921018     0.04600
H1183       H  0.47844186  0.18768519  0.18105142     0.06600
H1184       H  0.49355173  0.14343094  0.17837017     0.07400
C1185       C  0.37964875  0.17064349  0.02953627    -0.22200
C1186       C  0.36413468  0.14154348  0.02006752     0.09800
C1187       C  0.35134911  0.11534205  0.03436421     0.10200
C1188       C  0.35518435  0.11852501  0.05786612    -0.17100
C1189       C  0.37209735  0.14705150  0.06735051    -0.27500
C1190       C  0.38339525  0.17399981  0.05291282     0.18500
C1191       C  0.36332950  0.13873523  0.99509755     0.12500
C1192       C  0.33410133  0.08389630  0.02479035    -0.11900
H1193       H  0.34617828  0.09802111  0.06876539     0.12800
C1194       C  0.39873069  0.20711745  0.06143998    -0.22700
H1195       H  0.38909378  0.19090848  0.01854165     0.08400
C1196       C  0.34004914  0.15804567  0.98186060     0.04700
C1197       C  0.34316115  0.15760856  0.95822439    -0.19900
C1198       C  0.36927628  0.13858710  0.94760515    -0.12200
C1199       C  0.39135884  0.11783237  0.96088344     0.13500
C1200       C  0.38831591  0.11846417  0.98443257    -0.22700
C1201       C  0.31234969  0.17948647  0.99272970    -0.05700
H1202       H  0.32613356  0.17338476  0.94804828     0.15000
C1203       C  0.41806932  0.09434553  0.95076320    -0.15900
H1204       H  0.40599720  0.10341031  0.99460635     0.09300
H1205       H  0.38401583  0.22927108  0.05453581     0.07200
H1206       H  0.42596786  0.20923745  0.05585896     0.08400
H1207       H  0.39760638  0.20923347  0.07995227     0.07400
H1208       H  0.35241557  0.06975379  0.01381831     0.02300
H1209       H  0.31134588  0.09175428  0.01471436     0.02800
H1210       H  0.32526118  0.06602994  0.03826190     0.06300
H1211       H  0.29600764  0.19259505  0.97999053     0.05300
H1212       H  0.32417233  0.19955220  0.00352743    -0.00500
H1213       H  0.29553094  0.16273727  0.00323220     0.01000
H1214       H  0.44421061  0.10301311  0.95577775     0.04600
H1215       H  0.41670130  0.09338308  0.93216454     0.06600
H1216       H  0.41393492  0.06766356  0.95701096     0.07400
C1217       C  0.41476686  0.98766684  0.11106619    -0.22200
C1218       C  0.44338917  0.97490713  0.12267965     0.09800
C1219       C  0.46463956  0.99778866  0.13482336     0.10200
C1220       C  0.45624191  0.03299259  0.13551150    -0.17100
C1221       C  0.42694336  0.04566365  0.12445283    -0.27500
C1222       C  0.40638844  0.02278138  0.11160466     0.18500
C1223       C  0.45072550  0.93746974  0.12179137     0.12500
C1224       C  0.49563035  0.98484842  0.14748917    -0.11900
H1225       H  0.47192057  0.05048728  0.14534603     0.12800
C1226       C  0.37604039  0.03445907  0.09772831    -0.22700
H1227       H  0.39890541  0.97006329  0.10142424     0.08400
C1228       C  0.43325013  0.91378179  0.13584233     0.04700
C1229       C  0.44201625  0.87869254  0.13494301    -0.19900
C1230       C  0.46808415  0.86696301  0.12048135    -0.12200
C1231       C  0.48464179  0.89059239  0.10580499     0.13500
C1232       C  0.47578022  0.92557568  0.10670902    -0.22700
C1233       C  0.40615702  0.92573679  0.15223421    -0.05700
H1234       H  0.42950644  0.86056824  0.14623834     0.15000
C1235       C  0.51130882  0.87977488  0.08874861    -0.15900
H1236       H  0.48868911  0.94379500  0.09566646     0.09300
H1237       H  0.35211831  0.02226707  0.10424859     0.07200
H1238       H  0.37986197  0.02653251  0.07993841     0.08400
H1239       H  0.37256720  0.06271935  0.09767682     0.07400
H1240       H  0.51412933  0.97285115  0.13559110     0.02300
H1241       H  0.48747015  0.96540139  0.16017775     0.02800
H1242       H  0.50914735  0.00600792  0.15641485     0.06300
H1243       H  0.39544502  0.90399337  0.16224300     0.05300
H1244       H  0.38463238  0.93808804  0.14296439    -0.00500
H1245       H  0.41753206  0.94465367  0.16408678     0.01000
H1246       H  0.50287455  0.88775262  0.07164974     0.04600
H1247       H  0.51535651  0.85156990  0.08835803     0.06600
H1248       H  0.53626135  0.89245344  0.09257566     0.07400
loop_ 
_geom_bond_atom_site_label_1 
_geom_bond_atom_site_label_2 
_geom_bond_distance 
_geom_bond_site_symmetry_2 
_ccdc_geom_bond_type 
O1            V9   1.915       .  S
O1           C11   1.266       .  A
O2            V9   1.912       .  S
O2           C12   1.267       .  A
O3            V9   1.896       .  S
O3           C13   1.263       .  A
O4            V9   1.893       .  S
O4           C14   1.262       .  A
O5           V10   1.917       .  S
O5           C14   1.270       .  A
O6           V10   1.916       .  S
O6           C13   1.268       .  A
O7           V10   1.890       .  S
O7           C12   1.261       .  A
O8           V10   1.889       .  S
O8           C11   1.263       .  A
V9           V10   2.084       .  T
C11        C1125   1.488       .  S
C12        C1221   1.477       .  S
C13        C1189   1.487       .  S
C14        C1166   1.501       .  S
O15          V23   1.909       .  S
O15          C25   1.265       .  A
O16          V23   1.910       .  S
O16          C26   1.266       .  A
O17          V23   1.902       .  S
O17          C27   1.265       .  A
O18          V23   1.902       .  S
O18          C28   1.266       .  A
O19          V24   1.910       .  S
O19          C28   1.267       .  A
O20          V24   1.911       .  S
O20          C27   1.266       .  A
O21          V24   1.892       .  S
O21          C26   1.262       .  A
O22          V24   1.890       .  S
O22          C25   1.263       .  A
V23          V24   2.086       .  T
C25        C1029   1.476       .  S
C26        C1230   1.475       .  S
C27        C1093   1.486       .  S
C28        C1061   1.501       .  S
O29          V37   1.914       .  S
O29          C39   1.267       .  A
O30          V37   1.912       .  S
O30          C40   1.267       .  A
O31          V37   1.901       .  S
O31          C41   1.264       .  A
O32          V37   1.899       .  S
O32          C42   1.264       .  A
O33          V38   1.913       .  S
O33          C42   1.266       .  A
O34          V38   1.913       .  S
O34          C41   1.267       .  A
O35          V38   1.888       .  S
O35          C40   1.263       .  A
O36          V38   1.887       .  S
O36          C39   1.263       .  A
V37          V38   2.083       .  T
C39         C942   1.482       .  S
C40         C997   1.486       .  S
C41         C974   1.485       .  S
C42        C1198   1.481       .  S
O43          V51   1.918       .  S
O43          C53   1.268       .  A
O44          V51   1.913       .  S
O44          C54   1.267       .  A
O45          V51   1.895       .  S
O45          C55   1.262       .  A
O46          V51   1.896       .  S
O46          C56   1.263       .  A
O47          V52   1.917       .  S
O47          C56   1.268       .  A
O48          V52   1.916       .  S
O48          C55   1.268       .  A
O49          V52   1.887       .  S
O49          C54   1.262       .  A
O50          V52   1.884       .  S
O50          C53   1.261       .  A
V51          V52   2.086       .  T
C53         C869   1.477       .  S
C54        C1006   1.488       .  S
C55         C901   1.482       .  S
C56        C1102   1.486       .  S
O57          V65   1.918       .  S
O57          C67   1.267       .  A
O58          V65   1.915       .  S
O58          C68   1.270       .  A
O59          V65   1.895       .  S
O59          C69   1.263       .  A
O60          V65   1.893       .  S
O60          C70   1.263       .  A
O61          V66   1.913       .  S
O61          C70   1.267       .  A
O62          V66   1.915       .  S
O62          C69   1.268       .  A
O63          V66   1.887       .  S
O63          C68   1.260       .  A
O64          V66   1.888       .  S
O64          C67   1.261       .  A
V65          V66   2.085       .  T
C67         C773   1.476       .  S
C68         C837   1.496       .  S
C69         C910   1.484       .  S
C70         C805   1.482       .  S
O71          V79   1.912       .  S
O71          C81   1.266       .  A
O72          V79   1.912       .  S
O72          C82   1.267       .  A
O73          V79   1.895       .  S
O73          C83   1.264       .  A
O74          V79   1.892       .  S
O74          C84   1.262       .  A
O75          V80   1.917       .  S
O75          C84   1.268       .  A
O76          V80   1.917       .  S
O76          C83   1.269       .  A
O77          V80   1.888       .  S
O77          C82   1.261       .  A
O78          V80   1.887       .  S
O78          C81   1.261       .  A
V79          V80   2.085       .  T
C81         C709   1.473       .  S
C82         C846   1.475       .  S
C83         C965   1.502       .  S
C84         C741   1.482       .  S
O85          V93   1.912       .  S
O85          C95   1.266       .  A
O86          V93   1.909       .  S
O86          C96   1.267       .  A
O87          V93   1.896       .  S
O87          C97   1.263       .  A
O88          V93   1.899       .  S
O88          C98   1.264       .  A
O89          V94   1.911       .  S
O89          C98   1.268       .  A
O90          V94   1.912       .  S
O90          C97   1.267       .  A
O91          V94   1.886       .  S
O91          C96   1.261       .  A
O92          V94   1.885       .  S
O92          C95   1.262       .  A
V93          V94   2.086       .  T
C95         C645   1.478       .  S
C96         C677   1.474       .  S
C97         C814   1.489       .  S
C98        C1070   1.486       .  S
O99         V107   1.914       .  S
O99         C109   1.267       .  A
O100        V107   1.911       .  S
O100        C110   1.267       .  A
O101        V107   1.895       .  S
O101        C111   1.264       .  A
O102        V107   1.895       .  S
O102        C112   1.262       .  A
O103        V108   1.913       .  S
O103        C112   1.268       .  A
O104        V108   1.914       .  S
O104        C111   1.268       .  A
O105        V108   1.884       .  S
O105        C110   1.260       .  A
O106        V108   1.885       .  S
O106        C109   1.261       .  A
V107        V108   2.085       .  T
C109        C613   1.477       .  S
C110        C686   1.472       .  S
C111        C750   1.493       .  S
C112       C1157   1.485       .  S
O113        V121   1.913       .  S
O113        C123   1.266       .  A
O114        V121   1.911       .  S
O114        C124   1.267       .  A
O115        V121   1.897       .  S
O115        C125   1.263       .  A
O116        V121   1.895       .  S
O116        C126   1.263       .  A
O117        V122   1.916       .  S
O117        C126   1.268       .  A
O118        V122   1.917       .  S
O118        C125   1.269       .  A
O119        V122   1.883       .  S
O119        C124   1.260       .  A
O120        V122   1.885       .  S
O120        C123   1.261       .  A
V121        V122   2.087       .  T
C123       C1134   1.474       .  S
C124        C581   1.475       .  S
C125        C517   1.490       .  S
C126        C549   1.483       .  S
O127        V135   1.913       .  S
O127        C137   1.267       .  A
O128        V135   1.910       .  S
O128        C138   1.266       .  A
O129        V135   1.893       .  S
O129        C139   1.262       .  A
O130        V135   1.896       .  S
O130        C140   1.263       .  A
O131        V136   1.915       .  S
O131        C140   1.267       .  A
O132        V136   1.917       .  S
O132        C139   1.270       .  A
O133        V136   1.886       .  S
O133        C138   1.262       .  A
O134        V136   1.882       .  S
O134        C137   1.261       .  A
V135        V136   2.083       .  T
C137       C1038   1.472       .  S
C138        C590   1.486       .  S
C139        C462   1.501       .  S
C140        C485   1.481       .  S
O141        V149   1.912       .  S
O141        C151   1.266       .  A
O142        V149   1.909       .  S
O142        C152   1.267       .  A
O143        V149   1.897       .  S
O143        C153   1.265       .  A
O144        V149   1.900       .  S
O144        C154   1.264       .  A
O145        V150   1.913       .  S
O145        C154   1.268       .  A
O146        V150   1.914       .  S
O146        C153   1.268       .  A
O147        V150   1.883       .  S
O147        C152   1.260       .  A
O148        V150   1.884       .  S
O148        C151   1.261       .  A
V149        V150   2.084       .  T
C151        C933   1.471       .  S
C152        C430   1.469       .  S
C153        C558   1.494       .  S
C154        C389   1.485       .  S
O155        V163   1.913       .  S
O155        C165   1.266       .  A
O156        V163   1.910       .  S
O156        C166   1.267       .  A
O157        V163   1.897       .  S
O157        C167   1.263       .  A
O158        V163   1.897       .  S
O158        C168   1.263       .  A
O159        V164   1.912       .  S
O159        C168   1.267       .  A
O160        V164   1.916       .  S
O160        C167   1.269       .  A
O161        V164   1.883       .  S
O161        C166   1.260       .  A
O162        V164   1.888       .  S
O162        C165   1.262       .  A
V163        V164   2.087       .  T
C165        C878   1.476       .  S
C166        C421   1.473       .  S
C167        C494   1.492       .  S
C168        C357   1.481       .  S
O169        V177   1.911       .  S
O169        C179   1.265       .  A
O170        V177   1.908       .  S
O170        C180   1.266       .  A
O171        V177   1.900       .  S
O171        C181   1.264       .  A
O172        V177   1.896       .  S
O172        C182   1.263       .  A
O173        V178   1.914       .  S
O173        C182   1.269       .  A
O174        V178   1.911       .  S
O174        C181   1.267       .  A
O175        V178   1.890       .  S
O175        C180   1.261       .  A
O176        V178   1.888       .  S
O176        C179   1.264       .  A
V177        V178   2.084       .  T
C179        C718   1.487       .  S
C180        C325   1.471       .  S
C181        C293   1.487       .  S
C182        C366   1.500       .  S
O183        V191   1.914       .  S
O183        C193   1.266       .  A
O184        V191   1.910       .  S
O184        C194   1.267       .  A
O185        V191   1.897       .  S
O185        C195   1.264       .  A
O186        V191   1.897       .  S
O186        C196   1.263       .  A
O187        V192   1.917       .  S
O187        C196   1.270       .  A
O188        V192   1.916       .  S
O188        C195   1.268       .  A
O189        V192   1.890       .  S
O189        C194   1.261       .  A
O190        V192   1.891       .  S
O190        C193   1.265       .  A
V191        V192   2.083       .  T
C193        C782   1.496       .  S
C194        C334   1.476       .  S
C195        C261   1.488       .  S
C196        C398   1.502       .  S
O197        V205   1.916       .  S
O197        C207   1.268       .  A
O198        V205   1.912       .  S
O198        C208   1.267       .  A
O199        V205   1.894       .  S
O199        C209   1.262       .  A
O200        V205   1.895       .  S
O200        C210   1.263       .  A
O201        V206   1.915       .  S
O201        C210   1.267       .  A
O202        V206   1.914       .  S
O202        C209   1.268       .  A
O203        V206   1.881       .  S
O203        C208   1.262       .  A
O204        V206   1.885       .  S
O204        C207   1.261       .  A
V205        V206   2.084       .  T
C207        C622   1.478       .  S
C208        C229   1.484       .  S
C209        C453   1.483       .  S
C210        C302   1.480       .  S
O211        V219   1.914       .  S
O211        C221   1.266       .  A
O212        V219   1.910       .  S
O212        C222   1.266       .  A
O213        V219   1.894       .  S
O213        C223   1.262       .  A
O214        V219   1.897       .  S
O214        C224   1.263       .  A
O215        V220   1.921       .  S
O215        C224   1.269       .  A
O216        V220   1.921       .  S
O216        C223   1.271       .  A
O217        V220   1.884       .  S
O217        C222   1.261       .  A
O218        V220   1.884       .  S
O218        C221   1.261       .  A
V219        V220   2.084       .  T
C221        C654   1.473       .  S
C222        C238   1.483       .  S
C223        C526   1.497       .  S
C224        C270   1.490       .  S
C225        C226   1.401       .  A
C225        C230   1.406       .  A
C225        H235   1.083       .  S
C226        C231   1.476       .  S
C226        C227   1.404       .  A
C227        C228   1.397       .  A
C227        C232   1.508       .  S
C228        C229   1.410       .  A
C228        H233   1.083       .  S
C229        C230   1.422       .  A
C230        C234   1.509       .  S
C231        C236   1.405       .  A
C231        C240   1.400       .  A
C232        H248   1.110       .  S
C232        H249   1.110       .  S
C232        H250   1.111       .  S
C234        H245   1.110       .  S
C234        H246   1.111       .  S
C234        H247   1.101       .  S
C236        C237   1.399   1_655  A
C236        C241   1.507       .  S
C237        C238   1.409       .  A
C237        H242   1.084       .  S
C238        C239   1.421       .  A
C239        C240   1.404   1_455  A
C239        C243   1.508       .  S
C240        H244   1.085       .  S
C241        H251   1.111       .  S
C241        H252   1.110       .  S
C241        H253   1.110       .  S
C243        H254   1.111       .  S
C243        H255   1.100       .  S
C243        H256   1.110       .  S
C257        C258   1.400       .  A
C257        C262   1.404       .  A
C257        H267   1.085       .  S
C258        C263   1.489       .  S
C258        C259   1.412       .  A
C259        C260   1.410       .  A
C259        C264   1.505       .  S
C260        C261   1.407       .  A
C260        H265   1.083       .  S
C261        C262   1.419       .  A
C262        C266   1.508       .  S
C263        C268   1.412       .  A
C263        C272   1.400       .  A
C264        H280   1.110       .  S
C264        H281   1.110       .  S
C264        H282   1.111       .  S
C266        H277   1.111       .  S
C266        H278   1.110       .  S
C266        H279   1.106       .  S
C268        C269   1.410       .  A
C268        C273   1.505       .  S
C269        C270   1.406       .  A
C269        H274   1.083       .  S
C270        C271   1.417       .  A
C271        C272   1.404       .  A
C271        C275   1.506       .  S
C272        H276   1.086       .  S
C273        H283   1.111       .  S
C273        H284   1.110       .  S
C273        H285   1.110       .  S
C275        H286   1.109       .  S
C275        H287   1.110       .  S
C275        H288   1.111       .  S
C289        C290   1.400       .  A
C289        C294   1.404       .  A
C289        H299   1.085       .  S
C290        C295   1.486       .  S
C290        C291   1.411       .  A
C291        C292   1.408       .  A
C291        C296   1.505       .  S
C292        C293   1.407       .  A
C292        H297   1.084       .  S
C293        C294   1.420       .  A
C294        C298   1.507       .  S
C295        C300   1.413       .  A
C295        C304   1.400       .  A
C296        H312   1.110       .  S
C296        H313   1.110       .  S
C296        H314   1.111       .  S
C298        H309   1.111       .  S
C298        H310   1.110       .  S
C298        H311   1.104       .  S
C300        C301   1.409       .  A
C300        C305   1.505       .  S
C301        C302   1.404       .  A
C301        H306   1.084       .  S
C302        C303   1.416       .  A
C303        C304   1.402       .  A
C303        C307   1.507       .  S
C304        H308   1.086       .  S
C305        H315   1.111       .  S
C305        H316   1.110       .  S
C305        H317   1.110       .  S
C307        H318   1.110       .  S
C307        H319   1.107       .  S
C307        H320   1.111       .  S
C321        C322   1.400       .  A
C321        C326   1.402       .  A
C321        H331   1.085       .  S
C322        C327   1.480       .  S
C322        C323   1.412       .  A
C323        C324   1.404       .  A
C323        C328   1.506       .  S
C324        C325   1.402       .  A
C324        H329   1.084       .  S
C325        C326   1.416       .  A
C326        C330   1.508       .  S
C327        C332   1.411       .  A
C327        C336   1.399       .  A
C328        H344   1.110       .  S
C328        H345   1.110       .  S
C328        H346   1.111       .  S
C330        H341   1.110       .  S
C330        H342   1.111       .  S
C330        H343   1.107       .  S
C332        C333   1.405   1_655  A
C332        C337   1.506       .  S
C333        C334   1.403       .  A
C333        H338   1.085       .  S
C334        C335   1.418       .  A
C335        C336   1.402   1_455  A
C335        C339   1.509       .  S
C336        H340   1.085       .  S
C337        H347   1.111       .  S
C337        H348   1.110       .  S
C337        H349   1.110       .  S
C339        H350   1.111       .  S
C339        H351   1.106       .  S
C339        H352   1.110       .  S
C353        C354   1.401       .  A
C353        C358   1.405       .  A
C353        H363   1.083       .  S
C354        C359   1.487       .  S
C354        C355   1.412       .  A
C355        C356   1.408       .  A
C355        C360   1.506       .  S
C356        C357   1.405       .  A
C356        H361   1.083       .  S
C357        C358   1.418       .  A
C358        C362   1.509       .  S
C359        C364   1.410       .  A
C359        C368   1.398       .  A
C360        H376   1.110       .  S
C360        H377   1.110       .  S
C360        H378   1.111       .  S
C362        H373   1.110       .  S
C362        H374   1.111       .  S
C362        H375   1.107       .  S
C364        C365   1.409       .  A
C364        C369   1.506       .  S
C365        C366   1.410       .  A
C365        H370   1.082       .  S
C366        C367   1.426       .  A
C367        C368   1.406       .  A
C367        C371   1.509       .  S
C368        H372   1.083       .  S
C369        H379   1.111       .  S
C369        H380   1.110       .  S
C369        H381   1.110       .  S
C371        H382   1.110       .  S
C371        H383   1.110       .  S
C371        H384   1.111       .  S
C385        C386   1.401       .  A
C385        C390   1.405       .  A
C385        H395   1.086       .  S
C386        C391   1.491       .  S
C386        C387   1.412       .  A
C387        C388   1.409       .  A
C387        C392   1.506       .  S
C388        C389   1.406       .  A
C388        H393   1.085       .  S
C389        C390   1.419       .  A
C390        C394   1.508       .  S
C391        C396   1.411       .  A
C391        C400   1.399       .  A
C392        H408   1.110       .  S
C392        H409   1.110       .  S
C392        H410   1.111       .  S
C394        H405   1.110       .  S
C394        H406   1.111       .  S
C394        H407   1.106       .  S
C396        C397   1.409       .  A
C396        C401   1.506       .  S
C397        C398   1.410       .  A
C397        H402   1.083       .  S
C398        C399   1.426       .  A
C399        C400   1.407       .  A
C399        C403   1.509       .  S
C400        H404   1.084       .  S
C401        H411   1.111       .  S
C401        H412   1.110       .  S
C401        H413   1.111       .  S
C403        H414   1.110       .  S
C403        H415   1.111       .  S
C403        H416   1.111       .  S
C417        C418   1.401       .  A
C417        C422   1.404       .  A
C417        H427   1.084       .  S
C418        C423   1.476       .  S
C418        C419   1.407       .  A
C419        C420   1.400       .  A
C419        C424   1.507       .  S
C420        C421   1.406       .  A
C420        H425   1.084       .  S
C421        C422   1.417       .  A
C422        C426   1.508       .  S
C423        C428   1.408       .  A
C423        C432   1.402       .  A
C424        H440   1.110       .  S
C424        H441   1.110       .  S
C424        H442   1.111       .  S
C426        H437   1.110       .  S
C426        H438   1.111       .  S
C426        H439   1.105       .  S
C428        C429   1.400   1_655  A
C428        C433   1.507       .  S
C429        C430   1.404       .  A
C429        H434   1.085       .  S
C430        C431   1.415       .  A
C431        C432   1.403   1_455  A
C431        C435   1.508       .  S
C432        H436   1.085       .  S
C433        H443   1.111       .  S
C433        H444   1.110       .  S
C433        H445   1.110       .  S
C435        H446   1.111       .  S
C435        H447   1.107       .  S
C435        H448   1.110       .  S
C449        C450   1.402       .  A
C449        C454   1.407       .  A
C449        H459   1.084       .  S
C450        C455   1.487       .  S
C450        C451   1.410       .  A
C451        C452   1.405       .  A
C451        C456   1.506       .  S
C452        C453   1.406       .  A
C452        H457   1.084       .  S
C453        C454   1.419       .  A
C454        C458   1.509       .  S
C455        C460   1.410       .  A
C455        C464   1.397       .  A
C456        H472   1.110       .  S
C456        H473   1.110       .  S
C456        H474   1.111       .  S
C458        H469   1.111       .  S
C458        H470   1.110       .  S
C458        H471   1.105       .  S
C460        C461   1.408       .  A
C460        C465   1.506       .  S
C461        C462   1.410       .  A
C461        H466   1.084       .  S
C462        C463   1.427       .  A
C463        C464   1.406       .  A
C463        C467   1.509       .  S
C464        H468   1.085       .  S
C465        H475   1.111       .  S
C465        H476   1.110       .  S
C465        H477   1.110       .  S
C467        H478   1.110       .  S
C467        H479   1.110       .  S
C467        H480   1.111       .  S
C481        C482   1.402       .  A
C481        C486   1.404       .  A
C481        H491   1.084       .  S
C482        C487   1.489   1_554  S
C482        C483   1.412       .  A
C483        C484   1.409       .  A
C483        C488   1.505       .  S
C484        C485   1.405       .  A
C484        H489   1.083       .  S
C485        C486   1.416       .  A
C486        C490   1.508       .  S
C487        C492   1.411       .  A
C487        C496   1.401       .  A
C488        H504   1.110       .  S
C488        H505   1.110       .  S
C488        H506   1.111       .  S
C490        H501   1.110       .  S
C490        H502   1.110       .  S
C490        H503   1.107       .  S
C492        C493   1.409       .  A
C492        C497   1.505       .  S
C493        C494   1.408       .  A
C493        H498   1.084       .  S
C494        C495   1.420       .  A
C495        C496   1.406       .  A
C495        C499   1.508       .  S
C496        H500   1.084       .  S
C497        H507   1.111       .  S
C497        H508   1.110   1_556  S
C497        H509   1.110   1_556  S
C499        H510   1.109       .  S
C499        H511   1.111       .  S
C499        H512   1.111       .  S
C513        C514   1.404       .  A
C513        C518   1.409       .  A
C513        H523   1.084       .  S
C514        C519   1.495       .  S
C514        C515   1.412       .  A
C515        C516   1.406       .  A
C515        C520   1.507       .  S
C516        C517   1.407       .  A
C516        H521   1.084       .  S
C517        C518   1.421       .  A
C518        C522   1.508       .  S
C519        C524   1.414       .  A
C519        C528   1.401       .  A
C520        H536   1.109       .  S
C520        H537   1.110       .  S
C520        H538   1.111       .  S
C522        H533   1.111       .  S
C522        H534   1.110       .  S
C522        H535   1.104       .  S
C524        C525   1.410       .  A
C524        C529   1.506       .  S
C525        C526   1.407       .  A
C525        H530   1.083       .  S
C526        C527   1.423       .  A
C527        C528   1.408       .  A
C527        C531   1.508       .  S
C528        H532   1.083       .  S
C529        H539   1.111       .  S
C529        H540   1.109       .  S
C529        H541   1.110       .  S
C531        H542   1.109       .  S
C531        H543   1.111       .  S
C531        H544   1.111       .  S
C545        C546   1.401       .  A
C545        C550   1.404       .  A
C545        H555   1.083       .  S
C546        C551   1.488       .  S
C546        C547   1.412       .  A
C547        C548   1.410       .  A
C547        C552   1.505       .  S
C548        C549   1.405       .  A
C548        H553   1.082       .  S
C549        C550   1.419       .  A
C550        C554   1.509       .  S
C551        C556   1.410   1_554  A
C551        C560   1.403   1_554  A
C552        H568   1.110       .  S
C552        H569   1.110       .  S
C552        H570   1.110       .  S
C554        H565   1.110       .  S
C554        H566   1.110       .  S
C554        H567   1.107       .  S
C556        C557   1.403       .  A
C556        C561   1.507   1_556  S
C557        C558   1.408       .  A
C557        H562   1.083       .  S
C558        C559   1.420       .  A
C559        C560   1.412       .  A
C559        C563   1.506       .  S
C560        H564   1.083       .  S
C561        H571   1.111   1_554  S
C561        H572   1.110       .  S
C561        H573   1.110       .  S
C563        H574   1.111       .  S
C563        H575   1.111       .  S
C563        H576   1.110       .  S
C577        C578   1.401       .  A
C577        C582   1.404   1_655  A
C577        H587   1.084       .  S
C578        C583   1.477       .  S
C578        C579   1.408       .  A
C579        C580   1.401   1_655  A
C579        C584   1.507       .  S
C580        C581   1.406       .  A
C580        H585   1.084       .  S
C581        C582   1.417       .  A
C582        C586   1.508       .  S
C583        C588   1.405       .  A
C583        C592   1.400       .  A
C584        H600   1.110       .  S
C584        H601   1.109       .  S
C584        H602   1.111       .  S
C586        H597   1.110       .  S
C586        H598   1.111       .  S
C586        H599   1.105       .  S
C588        C589   1.400       .  A
C588        C593   1.508       .  S
C589        C590   1.410       .  A
C589        H594   1.084       .  S
C590        C591   1.423       .  A
C591        C592   1.405       .  A
C591        C595   1.509       .  S
C592        H596   1.085       .  S
C593        H603   1.111       .  S
C593        H604   1.110       .  S
C593        H605   1.109       .  S
C595        H606   1.111       .  S
C595        H607   1.101       .  S
C595        H608   1.110       .  S
C609        C610   1.402       .  A
C609        C614   1.406       .  A
C609        H619   1.086       .  S
C610        C615   1.481       .  S
C610        C611   1.411       .  A
C611        C612   1.401       .  A
C611        C616   1.508       .  S
C612        C613   1.404       .  A
C612        H617   1.086       .  S
C613        C614   1.417       .  A
C614        C618   1.508       .  S
C615        C620   1.411       .  A
C615        C624   1.398       .  A
C616        H632   1.110       .  S
C616        H633   1.108       .  S
C616        H634   1.111       .  S
C618        H629   1.110       .  S
C618        H630   1.111       .  S
C618        H631   1.105       .  S
C620        C621   1.410       .  A
C620        C625   1.505       .  S
C621        C622   1.406       .  A
C621        H626   1.083       .  S
C622        C623   1.418       .  A
C623        C624   1.397       .  A
C623        C627   1.509       .  S
C624        H628   1.084       .  S
C625        H635   1.111       .  S
C625        H636   1.110       .  S
C625        H637   1.108       .  S
C627        H638   1.111       .  S
C627        H639   1.105       .  S
C627        H640   1.110       .  S
C641        C642   1.403       .  A
C641        C646   1.406       .  A
C641        H651   1.084       .  S
C642        C647   1.479       .  S
C642        C643   1.411       .  A
C643        C644   1.400       .  A
C643        C648   1.509       .  S
C644        C645   1.404       .  A
C644        H649   1.084       .  S
C645        C646   1.419       .  A
C646        C650   1.508       .  S
C647        C652   1.412       .  A
C647        C656   1.398       .  A
C648        H664   1.110       .  S
C648        H665   1.107       .  S
C648        H666   1.111       .  S
C650        H661   1.110       .  S
C650        H662   1.111       .  S
C650        H663   1.104       .  S
C652        C653   1.410       .  A
C652        C657   1.505       .  S
C653        C654   1.405       .  A
C653        H658   1.084       .  S
C654        C655   1.415       .  A
C655        C656   1.395       .  A
C655        C659   1.507       .  S
C656        H660   1.085       .  S
C657        H667   1.111       .  S
C657        H668   1.110       .  S
C657        H669   1.108       .  S
C659        H670   1.111       .  S
C659        H671   1.105       .  S
C659        H672   1.110       .  S
C673        C674   1.403       .  A
C673        C678   1.405       .  A
C673        H683   1.084       .  S
C674        C679   1.478       .  S
C674        C675   1.407       .  A
C675        C676   1.400       .  A
C675        C680   1.507       .  S
C676        C677   1.405       .  A
C676        H681   1.084       .  S
C677        C678   1.416       .  A
C678        C682   1.508       .  S
C679        C684   1.408       .  A
C679        C688   1.402   1_565  A
C680        H696   1.110       .  S
C680        H697   1.110       .  S
C680        H698   1.111       .  S
C682        H693   1.110       .  S
C682        H694   1.111       .  S
C682        H695   1.106       .  S
C684        C685   1.402   1_565  A
C684        C689   1.506       .  S
C685        C686   1.405       .  A
C685        H690   1.084       .  S
C686        C687   1.415       .  A
C687        C688   1.403       .  A
C687        C691   1.508       .  S
C688        H692   1.083   1_545  S
C689        H699   1.111       .  S
C689        H700   1.110       .  S
C689        H701   1.110       .  S
C691        H702   1.111       .  S
C691        H703   1.106       .  S
C691        H704   1.110       .  S
C705        C706   1.398       .  A
C705        C710   1.397       .  A
C705        H715   1.085       .  S
C706        C711   1.479       .  S
C706        C707   1.411       .  A
C707        C708   1.409       .  A
C707        C712   1.505       .  S
C708        C709   1.405       .  A
C708        H713   1.083       .  S
C709        C710   1.416       .  A
C710        C714   1.509       .  S
C711        C716   1.408       .  A
C711        C720   1.401       .  A
C712        H728   1.110       .  S
C712        H729   1.109       .  S
C712        H730   1.111       .  S
C714        H725   1.110       .  S
C714        H726   1.111       .  S
C714        H727   1.105       .  S
C716        C717   1.399       .  A
C716        C721   1.509       .  S
C717        C718   1.407       .  A
C717        H722   1.083       .  S
C718        C719   1.424       .  A
C719        C720   1.408       .  A
C719        C723   1.508       .  S
C720        H724   1.084       .  S
C721        H731   1.111       .  S
C721        H732   1.110       .  S
C721        H733   1.108       .  S
C723        H734   1.111       .  S
C723        H735   1.100       .  S
C723        H736   1.111       .  S
C737        C738   1.399       .  A
C737        C742   1.402       .  A
C737        H747   1.085       .  S
C738        C743   1.487       .  S
C738        C739   1.412       .  A
C739        C740   1.410       .  A
C739        C744   1.505       .  S
C740        C741   1.405       .  A
C740        H745   1.084       .  S
C741        C742   1.419       .  A
C742        C746   1.509       .  S
C743        C748   1.410       .  A
C743        C752   1.403       .  A
C744        H760   1.110       .  S
C744        H761   1.110       .  S
C744        H762   1.111       .  S
C746        H757   1.110       .  S
C746        H758   1.111       .  S
C746        H759   1.106       .  S
C748        C749   1.402       .  A
C748        C753   1.508       .  S
C749        C750   1.408       .  A
C749        H754   1.084       .  S
C750        C751   1.420       .  A
C751        C752   1.411       .  A
C751        C755   1.506       .  S
C752        H756   1.084       .  S
C753        H763   1.111       .  S
C753        H764   1.110       .  S
C753        H765   1.110       .  S
C755        H766   1.111       .  S
C755        H767   1.110       .  S
C755        H768   1.111       .  S
C769        C770   1.399       .  A
C769        C774   1.399       .  A
C769        H779   1.084       .  S
C770        C775   1.485       .  S
C770        C771   1.413       .  A
C771        C772   1.411       .  A
C771        C776   1.505       .  S
C772        C773   1.405       .  A
C772        H777   1.083       .  S
C773        C774   1.415       .  A
C774        C778   1.508       .  S
C775        C780   1.410       .  A
C775        C784   1.401       .  A
C776        H792   1.110       .  S
C776        H793   1.108       .  S
C776        H794   1.111       .  S
C778        H789   1.110       .  S
C778        H790   1.110       .  S
C778        H791   1.106       .  S
C780        C781   1.400       .  A
C780        C785   1.510       .  S
C781        C782   1.408       .  A
C781        H786   1.085       .  S
C782        C783   1.427       .  A
C783        C784   1.411       .  A
C783        C787   1.509       .  S
C784        H788   1.085       .  S
C785        H795   1.111       .  S
C785        H796   1.110       .  S
C785        H797   1.108       .  S
C787        H798   1.111       .  S
C787        H799   1.099       .  S
C787        H800   1.111       .  S
C801        C802   1.403       .  A
C801        C806   1.409       .  A
C801        H811   1.086       .  S
C802        C807   1.486       .  S
C802        C803   1.410       .  A
C803        C804   1.402       .  A
C803        C808   1.507       .  S
C804        C805   1.404       .  A
C804        H809   1.086       .  S
C805        C806   1.419       .  A
C806        C810   1.508       .  S
C807        C812   1.410       .  A
C807        C816   1.399       .  A
C808        H824   1.110       .  S
C808        H825   1.110       .  S
C808        H826   1.111       .  S
C810        H821   1.110       .  S
C810        H822   1.111       .  S
C810        H823   1.105       .  S
C812        C813   1.409       .  A
C812        C817   1.505       .  S
C813        C814   1.407       .  A
C813        H818   1.085       .  S
C814        C815   1.420       .  A
C815        C816   1.403       .  A
C815        C819   1.509       .  S
C816        H820   1.086       .  S
C817        H827   1.111       .  S
C817        H828   1.110       .  S
C817        H829   1.110       .  S
C819        H830   1.111       .  S
C819        H831   1.111       .  S
C819        H832   1.109       .  S
C833        C834   1.396       .  A
C833        C838   1.404       .  A
C833        H843   1.083       .  S
C834        C839   1.483       .  S
C834        C835   1.410       .  A
C835        C836   1.407       .  A
C835        C840   1.506       .  S
C836        C837   1.409       .  A
C836        H841   1.082       .  S
C837        C838   1.426       .  A
C838        C842   1.509       .  S
C839        C844   1.412   1_565  A
C839        C848   1.401   1_565  A
C840        H856   1.110       .  S
C840        H857   1.111       .  S
C840        H858   1.111       .  S
C842        H853   1.110       .  S
C842        H854   1.111       .  S
C842        H855   1.110       .  S
C844        C845   1.406       .  A
C844        C849   1.506       .  S
C845        C846   1.403       .  A
C845        H850   1.086       .  S
C846        C847   1.417       .  A
C847        C848   1.402       .  A
C847        C851   1.509       .  S
C848        H852   1.086   1_545  S
C849        H859   1.111       .  S
C849        H860   1.110   1_545  S
C849        H861   1.110   1_545  S
C851        H862   1.111       .  S
C851        H863   1.107       .  S
C851        H864   1.110       .  S
C865        C866   1.405       .  A
C865        C870   1.410       .  A
C865        H875   1.084       .  S
C866        C871   1.482       .  S
C866        C867   1.412       .  A
C867        C868   1.398       .  A
C867        C872   1.510       .  S
C868        C869   1.403       .  A
C868        H873   1.085       .  S
C869        C870   1.416       .  A
C870        C874   1.506       .  S
C871        C876   1.413       .  A
C871        C880   1.399       .  A
C872        H888   1.110       .  S
C872        H889   1.108       .  S
C872        H890   1.111       .  S
C874        H885   1.110       .  S
C874        H886   1.111       .  S
C874        H887   1.107       .  S
C876        C877   1.408       .  A
C876        C881   1.506       .  S
C877        C878   1.403       .  A
C877        H882   1.085       .  S
C878        C879   1.416       .  A
C879        C880   1.400       .  A
C879        C883   1.509       .  S
C880        H884   1.086       .  S
C881        H891   1.111       .  S
C881        H892   1.110       .  S
C881        H893   1.109       .  S
C883        H894   1.111       .  S
C883        H895   1.108       .  S
C883        H896   1.110       .  S
C897        C898   1.401       .  A
C897        C902   1.404       .  A
C897        H907   1.084       .  S
C898        C903   1.491       .  S
C898        C899   1.415       .  A
C899        C900   1.409       .  A
C899        C904   1.506       .  S
C900        C901   1.403       .  A
C900        H905   1.084       .  S
C901        C902   1.419       .  A
C902        C906   1.509       .  S
C903        C908   1.414       .  A
C903        C912   1.401       .  A
C904        H920   1.109       .  S
C904        H921   1.110       .  S
C904        H922   1.111       .  S
C906        H917   1.110       .  S
C906        H918   1.111       .  S
C906        H919   1.106       .  S
C908        C909   1.409       .  A
C908        C913   1.506       .  S
C909        C910   1.405       .  A
C909        H914   1.084       .  S
C910        C911   1.419       .  A
C911        C912   1.404       .  A
C911        C915   1.509       .  S
C912        H916   1.084       .  S
C913        H923   1.111       .  S
C913        H924   1.109       .  S
C913        H925   1.110       .  S
C915        H926   1.111       .  S
C915        H927   1.107       .  S
C915        H928   1.110       .  S
C929        C930   1.400       .  A
C929        C934   1.399       .  A
C929        H939   1.084       .  S
C930        C935   1.480       .  S
C930        C931   1.412       .  A
C931        C932   1.407       .  A
C931        C936   1.506       .  S
C932        C933   1.404       .  A
C932        H937   1.084       .  S
C933        C934   1.414       .  A
C934        C938   1.508       .  S
C935        C940   1.410       .  A
C935        C944   1.402       .  A
C936        H952   1.110       .  S
C936        H953   1.109       .  S
C936        H954   1.111       .  S
C938        H949   1.110       .  S
C938        H950   1.110       .  S
C938        H951   1.108       .  S
C940        C941   1.398       .  A
C940        C945   1.510       .  S
C941        C942   1.405       .  A
C941        H946   1.086       .  S
C942        C943   1.420       .  A
C943        C944   1.408       .  A
C943        C947   1.506       .  S
C944        H948   1.086       .  S
C945        H955   1.111       .  S
C945        H956   1.110       .  S
C945        H957   1.108       .  S
C947        H958   1.111       .  S
C947        H959   1.103       .  S
C947        H960   1.110       .  S
C961        C962   1.403       .  A
C961        C966   1.411       .  A
C961        H971   1.083       .  S
C962        C967   1.491       .  S
C962        C963   1.409       .  A
C963        C964   1.405       .  A
C963        C968   1.507       .  S
C964        C965   1.412       .  A
C964        H969   1.083       .  S
C965        C966   1.422       .  A
C966        C970   1.506       .  S
C967        C972   1.413       .  A
C967        C976   1.402       .  A
C968        H984   1.110       .  S
C968        H985   1.110       .  S
C968        H986   1.111       .  S
C970        H981   1.110       .  S
C970        H982   1.111       .  S
C970        H983   1.110       .  S
C972        C973   1.408       .  A
C972        C977   1.506       .  S
C973        C974   1.405       .  A
C973        H978   1.083       .  S
C974        C975   1.418       .  A
C975        C976   1.406       .  A
C975        C979   1.506       .  S
C976        H980   1.083       .  S
C977        H987   1.111       .  S
C977        H988   1.110       .  S
C977        H989   1.110       .  S
C979        H990   1.110       .  S
C979        H991   1.105       .  S
C979        H992   1.111       .  S
C993        C994   1.401   1_545  A
C993        C998   1.406       .  A
C993       H1003   1.085   1_545  S
C994        C999   1.481       .  S
C994        C995   1.406       .  A
C995        C996   1.401   1_565  A
C995       C1000   1.507       .  S
C996        C997   1.409       .  A
C996       H1001   1.085       .  S
C997        C998   1.423       .  A
C998       C1002   1.509       .  S
C999       C1004   1.406       .  A
C999       C1008   1.401       .  A
C1000      H1016   1.110       .  S
C1000      H1017   1.110       .  S
C1000      H1018   1.111       .  S
C1002      H1013   1.110       .  S
C1002      H1014   1.111       .  S
C1002      H1015   1.101       .  S
C1004      C1005   1.401       .  A
C1004      C1009   1.507       .  S
C1005      C1006   1.410       .  A
C1005      H1010   1.085       .  S
C1006      C1007   1.422       .  A
C1007      C1008   1.406       .  A
C1007      C1011   1.508       .  S
C1008      H1012   1.086       .  S
C1009      H1019   1.111       .  S
C1009      H1020   1.110       .  S
C1009      H1021   1.110       .  S
C1011      H1022   1.111       .  S
C1011      H1023   1.101       .  S
C1011      H1024   1.110       .  S
C1025      C1026   1.400       .  A
C1025      C1030   1.399       .  A
C1025      H1035   1.085       .  S
C1026      C1031   1.479       .  S
C1026      C1027   1.411       .  A
C1027      C1028   1.407       .  A
C1027      C1032   1.506       .  S
C1028      C1029   1.405       .  A
C1028      H1033   1.084       .  S
C1029      C1030   1.416       .  A
C1030      C1034   1.509       .  S
C1031      C1036   1.411       .  A
C1031      C1040   1.404       .  A
C1032      H1048   1.110       .  S
C1032      H1049   1.109       .  S
C1032      H1050   1.111       .  S
C1034      H1045   1.110       .  S
C1034      H1046   1.111       .  S
C1034      H1047   1.108       .  S
C1036      C1037   1.397       .  A
C1036      C1041   1.510       .  S
C1037      C1038   1.402       .  A
C1037      H1042   1.084       .  S
C1038      C1039   1.415       .  A
C1039      C1040   1.409       .  A
C1039      C1043   1.506       .  S
C1040      H1044   1.083       .  S
C1041      H1051   1.111       .  S
C1041      H1052   1.110       .  S
C1041      H1053   1.108       .  S
C1043      H1054   1.110       .  S
C1043      H1055   1.107       .  S
C1043      H1056   1.110       .  S
C1057      C1058   1.401       .  A
C1057      C1062   1.409       .  A
C1057      H1067   1.086       .  S
C1058      C1063   1.489       .  S
C1058      C1059   1.409       .  A
C1059      C1060   1.406       .  A
C1059      C1064   1.507       .  S
C1060      C1061   1.411       .  A
C1060      H1065   1.085       .  S
C1061      C1062   1.424       .  A
C1062      C1066   1.507       .  S
C1063      C1068   1.411       .  A
C1063      C1072   1.402       .  A
C1064      H1080   1.110       .  S
C1064      H1081   1.109       .  S
C1064      H1082   1.111       .  S
C1066      H1077   1.110       .  S
C1066      H1078   1.111       .  S
C1066      H1079   1.110       .  S
C1068      C1069   1.407       .  A
C1068      C1073   1.507       .  S
C1069      C1070   1.407       .  A
C1069      H1074   1.083       .  S
C1070      C1071   1.419       .  A
C1071      C1072   1.407       .  A
C1071      C1075   1.508       .  S
C1072      H1076   1.084       .  S
C1073      H1083   1.111       .  S
C1073      H1084   1.110       .  S
C1073      H1085   1.109       .  S
C1075      H1086   1.111       .  S
C1075      H1087   1.105       .  S
C1075      H1088   1.110       .  S
C1089      C1090   1.402       .  A
C1089      C1094   1.405       .  A
C1089      H1099   1.085       .  S
C1090      C1095   1.488   1_554  S
C1090      C1091   1.412       .  A
C1091      C1092   1.408       .  A
C1091      C1096   1.505       .  S
C1092      C1093   1.406       .  A
C1092      H1097   1.083       .  S
C1093      C1094   1.418       .  A
C1094      C1098   1.508       .  S
C1095      C1100   1.413       .  A
C1095      C1104   1.400       .  A
C1096      H1112   1.110       .  S
C1096      H1113   1.110       .  S
C1096      H1114   1.111       .  S
C1098      H1109   1.111       .  S
C1098      H1110   1.110       .  S
C1098      H1111   1.107       .  S
C1100      C1101   1.411       .  A
C1100      C1105   1.505       .  S
C1101      C1102   1.406       .  A
C1101      H1106   1.085       .  S
C1102      C1103   1.417       .  A
C1103      C1104   1.404       .  A
C1103      C1107   1.507       .  S
C1104      H1108   1.085       .  S
C1105      H1115   1.111       .  S
C1105      H1116   1.110       .  S
C1105      H1117   1.110       .  S
C1107      H1118   1.109       .  S
C1107      H1119   1.110       .  S
C1107      H1120   1.111       .  S
C1121      C1122   1.400       .  A
C1121      C1126   1.407       .  A
C1121      H1131   1.086       .  S
C1122      C1127   1.480       .  S
C1122      C1123   1.409       .  A
C1123      C1124   1.400       .  A
C1123      C1128   1.509       .  S
C1124      C1125   1.407       .  A
C1124      H1129   1.085       .  S
C1125      C1126   1.423       .  A
C1126      C1130   1.506       .  S
C1127      C1132   1.411       .  A
C1127      C1136   1.398       .  A
C1128      H1144   1.110       .  S
C1128      H1145   1.109       .  S
C1128      H1146   1.111       .  S
C1130      H1141   1.110       .  S
C1130      H1142   1.110       .  S
C1130      H1143   1.101       .  S
C1132      C1133   1.409       .  A
C1132      C1137   1.504       .  S
C1133      C1134   1.404       .  A
C1133      H1138   1.085       .  S
C1134      C1135   1.417       .  A
C1135      C1136   1.396       .  A
C1135      C1139   1.509       .  S
C1136      H1140   1.087       .  S
C1137      H1147   1.111       .  S
C1137      H1148   1.110       .  S
C1137      H1149   1.109       .  S
C1139      H1150   1.111       .  S
C1139      H1151   1.106       .  S
C1139      H1152   1.110       .  S
C1153      C1154   1.401       .  A
C1153      C1158   1.406       .  A
C1153      H1163   1.084       .  S
C1154      C1159   1.487       .  S
C1154      C1155   1.412       .  A
C1155      C1156   1.407       .  A
C1155      C1160   1.506       .  S
C1156      C1157   1.405       .  A
C1156      H1161   1.084       .  S
C1157      C1158   1.418       .  A
C1158      C1162   1.508       .  S
C1159      C1164   1.410       .  A
C1159      C1168   1.397       .  A
C1160      H1176   1.110       .  S
C1160      H1177   1.110       .  S
C1160      H1178   1.111       .  S
C1162      H1173   1.109       .  S
C1162      H1174   1.111       .  S
C1162      H1175   1.111       .  S
C1164      C1165   1.409       .  A
C1164      C1169   1.506       .  S
C1165      C1166   1.410       .  A
C1165      H1170   1.083       .  S
C1166      C1167   1.427       .  A
C1167      C1168   1.406       .  A
C1167      C1171   1.509       .  S
C1168      H1172   1.084       .  S
C1169      H1179   1.111       .  S
C1169      H1180   1.110       .  S
C1169      H1181   1.110       .  S
C1171      H1182   1.111       .  S
C1171      H1183   1.110       .  S
C1171      H1184   1.110       .  S
C1185      C1186   1.399       .  A
C1185      C1190   1.402       .  A
C1185      H1195   1.084       .  S
C1186      C1191   1.487   1_554  S
C1186      C1187   1.412       .  A
C1187      C1188   1.409       .  A
C1187      C1192   1.505       .  S
C1188      C1189   1.406       .  A
C1188      H1193   1.082       .  S
C1189      C1190   1.419       .  A
C1190      C1194   1.506       .  S
C1191      C1196   1.413       .  A
C1191      C1200   1.401       .  A
C1192      H1208   1.110       .  S
C1192      H1209   1.110       .  S
C1192      H1210   1.111       .  S
C1194      H1205   1.111       .  S
C1194      H1206   1.110       .  S
C1194      H1207   1.103       .  S
C1196      C1197   1.408       .  A
C1196      C1201   1.506       .  S
C1197      C1198   1.404       .  A
C1197      H1202   1.085       .  S
C1198      C1199   1.416       .  A
C1199      C1200   1.403       .  A
C1199      C1203   1.506       .  S
C1200      H1204   1.085       .  S
C1201      H1211   1.111       .  S
C1201      H1212   1.110   1_556  S
C1201      H1213   1.110   1_556  S
C1203      H1214   1.110       .  S
C1203      H1215   1.106       .  S
C1203      H1216   1.111       .  S
C1217      C1218   1.399       .  A
C1217      C1222   1.402   1_565  A
C1217      H1227   1.085       .  S
C1218      C1223   1.482       .  S
C1218      C1219   1.412       .  A
C1219      C1220   1.406   1_565  A
C1219      C1224   1.506       .  S
C1220      C1221   1.403       .  A
C1220      H1225   1.084       .  S
C1221      C1222   1.419       .  A
C1222      C1226   1.508       .  S
C1223      C1228   1.412       .  A
C1223      C1232   1.400       .  A
C1224      H1240   1.110       .  S
C1224      H1241   1.110       .  S
C1224      H1242   1.111   1_565  S
C1226      H1237   1.110       .  S
C1226      H1238   1.111       .  S
C1226      H1239   1.105       .  S
C1228      C1229   1.405       .  A
C1228      C1233   1.506       .  S
C1229      C1230   1.403       .  A
C1229      H1234   1.084       .  S
C1230      C1231   1.416       .  A
C1231      C1232   1.402       .  A
C1231      C1235   1.507       .  S
C1232      H1236   1.085       .  S
C1233      H1243   1.111       .  S
C1233      H1244   1.110       .  S
C1233      H1245   1.110       .  S
C1235      H1246   1.111       .  S
C1235      H1247   1.106       .  S
C1235      H1248   1.110       .  S
