geometry optimzed in LAMMPS
_audit_creation_date              2020-12-01 
_audit_creation_method            'lammps2cif' 
_symmetry_space_group_name_H-M    'P1' 
_symmetry_Int_Tables_number       1 
_symmetry_cell_setting            triclinic 
loop_ 
_symmetry_equiv_pos_as_xyz 
  x,y,z 
_cell_length_a                    25.83005305 
_cell_length_b                    25.4270751147201 
_cell_length_c                    24.437000821301154 
_cell_angle_alpha                 84.13292882807097 
_cell_angle_beta                  97.83529743588686 
_cell_angle_gamma                 101.54046935209374 
loop_ 
_atom_site_label 
_atom_site_type_symbol 
_atom_site_fract_x 
_atom_site_fract_y 
_atom_site_fract_z 
_atom_site_charge 
N1          N  0.94793232  0.04842942  0.50541010    -0.36400
N2          N  0.93867913  0.92786134  0.50309432    -0.56900
N3          N  0.05176944  0.94570834  0.50577826    -0.36400
N4          N  0.05958010  0.06633765  0.49946348    -0.56900
C5          C  0.89483447  0.03047014  0.49414499     0.27200
C6          C  0.95770279  0.10266789  0.49191776     0.27200
C7          C  0.03943008  0.89228191  0.49690776     0.27200
C8          C  0.10268013  0.96420266  0.49524915     0.27200
C9          C  0.88948157  0.93037356  0.51470915     0.35800
C10         C  0.94456707  0.87562281  0.51340610     0.35800
C11         C  0.05617670  0.11791720  0.50659023     0.35800
C12         C  0.11174644  0.06293398  0.50929148     0.35800
C13         C  0.87077924  0.07367016  0.47290464    -0.21700
C14         C  0.91022571  0.11889651  0.47145201    -0.21700
C15         C  0.08307659  0.87707806  0.48018806    -0.21700
C16         C  0.12282858  0.92207313  0.47940404    -0.21700
C17         C  0.86366775  0.87923587  0.53181141    -0.22700
C18         C  0.89846338  0.84466495  0.53093521    -0.22700
C19         C  0.10662223  0.14750090  0.52028941    -0.22700
C20         C  0.14170965  0.11286073  0.52185480    -0.22700
C21         C  0.86642806  0.97745569  0.50720319    -0.18100
C22         C  0.00793527  0.13837198  0.49967946    -0.18100
C23         C  0.13331882  0.01655136  0.50411877    -0.18100
C24         C  0.99113602  0.85599394  0.50675680    -0.18100
H25         H  0.82881693  0.07283664  0.46025177     0.14800
H26         H  0.90446439  0.15924102  0.45707089     0.14800
H27         H  0.08630306  0.83742916  0.47025346     0.14800
H28         H  0.16249827  0.92329457  0.46905936     0.14800
H29         H  0.82382187  0.86794042  0.54364191     0.13100
H30         H  0.89083478  0.80181405  0.54238577     0.13100
H31         H  0.11714690  0.18954085  0.52856385     0.13100
H32         H  0.18452746  0.12333699  0.53109007     0.13100
H33         H  0.97435304  0.02577538  0.52739783     0.26400
H34         H  0.02964310  0.96715680  0.52439273     0.26400
O35         O  0.12869274  0.56725464  0.52063445    -0.80700
O36         O  0.88633081  0.51114593  0.52065292    -0.65400
O37         O  0.03215249  0.50009613  0.54626658    -1.12000
C38         C  0.00135941  0.44812900  0.36513702     1.06200
O39         O  0.86500528  0.42970354  0.48895595    -0.78600
O40         O  0.94304010  0.37337390  0.48226952    -0.66100
Ni41       Ni  0.08413953  0.55582962  0.57961267     1.34900
C42         C  0.99132111  0.36784924  0.48976845     0.85000
O43         O  0.95825559  0.52512732  0.60933174    -0.79100
O44         O  0.04485948  0.54960162  0.64144928    -0.89400
C45         C  0.85208374  0.47044093  0.50589916     0.84500
O46         O  0.05464658  0.61780364  0.55146354    -0.67600
O47         O  0.95638293  0.42336329  0.37887320    -0.86900
C48         C  0.00960574  0.62597890  0.52815673     0.85400
C49         C  0.99543708  0.54138116  0.64703622     1.06900
H50         H  0.95671649  0.52116933  0.43602759     0.38700
O51         O  0.96222264  0.49076334  0.46183332    -1.09500
O52         O  0.02937718  0.40864238  0.48635796    -0.66200
Ni53       Ni  0.03563046  0.48759320  0.47130319     1.26300
O54         O  0.97208180  0.58695639  0.51314057    -0.66400
O55         O  0.03558205  0.47867426  0.39581316    -0.78700
C56         C  0.14293619  0.53105515  0.49712526     0.84700
O57         O  0.11004043  0.48963818  0.48211727    -0.65900
Ni58       Ni  0.91362397  0.42858931  0.43617172     1.27400
Ni59       Ni  0.95965410  0.50878949  0.53506118     1.26100
H60         H  0.03408702  0.46703730  0.56908967     0.39300
O61         O  0.46686731  0.86859434  0.54965162    -0.80700
O62         O  0.48415719  0.11422845  0.51239239    -0.65400
O63         O  0.45729785  0.96593199  0.49320419    -1.12000
C64         C  0.64819296  0.99711467  0.50553306     1.06200
O65         O  0.53881400  0.12861643  0.44740126    -0.78600
O66         O  0.58422048  0.05647727  0.40670709    -0.66100
Ni67       Ni  0.41530502  0.91451334  0.53861349     1.34900
C68         C  0.55241313  0.01657015  0.38625435     0.85000
O69         O  0.39326877  0.04082608  0.49953505    -0.79100
O70         O  0.35978666  0.95607292  0.53093411    -0.89400
C71         C  0.50613172  0.14409024  0.47392638     0.84500
O72         O  0.44355877  0.94241593  0.60777872    -0.67600
O73         O  0.64704614  0.04709512  0.50532396    -0.86900
C74         C  0.46131282  0.98987789  0.62188249     0.85400
C75         C  0.35483045  0.00424211  0.51431758     1.06900
H76         H  0.55588982  0.03399346  0.55270903     0.38700
O77         O  0.54223437  0.03414272  0.51387551    -1.09500
O78         O  0.52501129  0.98039312  0.41596136    -0.66200
Ni79       Ni  0.53100604  0.96262194  0.49492088     1.26300
O80         O  0.47069514  0.03026514  0.58671798    -0.66400
O81         O  0.60627177  0.96085742  0.49731547    -0.78700
C82         C  0.49286205  0.85567014  0.51413432     0.84700
O83         O  0.51499613  0.89002378  0.47930973    -0.65900
Ni84       Ni  0.59154375  0.08632134  0.47711387     1.27400
Ni85       Ni  0.46852655  0.03925564  0.50644117     1.26100
H86         H  0.44009932  0.96240158  0.45573279     0.39300
N87         N  0.52649342  0.95418980  0.06911354    -0.36400
N88         N  0.51431942  0.95386403  0.94709730    -0.56900
N89         N  0.50195462  0.06293185  0.93657343    -0.36400
N90         N  0.51023906  0.06264534  0.05866173    -0.56900
C91         C  0.51992570  0.90103132  0.06268547     0.27200
C92         C  0.52012533  0.95936838  0.12238501     0.27200
C93         C  0.48647125  0.05019645  0.88357011     0.27200
C94         C  0.48369054  0.10782208  0.94238194     0.27200
C95         C  0.53054482  0.90676567  0.96193271     0.35800
C96         C  0.51850499  0.96447781  0.89237483     0.35800
C97         C  0.52291392  0.05800815  0.11434839     0.35800
C98         C  0.51010744  0.11527276  0.04409139     0.35800
C99         C  0.50994042  0.87200614  0.11261652    -0.21700
C100        C  0.51090683  0.90875469  0.15040962    -0.21700
C101        C  0.45813233  0.08748488  0.85537403    -0.21700
C102        C  0.45680106  0.12421831  0.89232617    -0.21700
C103        C  0.54558011  0.88749074  0.91653775    -0.22700
C104        C  0.53807390  0.92424981  0.87240213    -0.22700
C105        C  0.52953739  0.10787698  0.13532142    -0.22700
C106        C  0.52172462  0.14415534  0.09083004    -0.22700
C107        C  0.52625499  0.87809337  0.01414578    -0.18100
C108        C  0.52488432  0.00873176  0.14664751    -0.18100
C109        C  0.49489077  0.13693810  0.99005977    -0.18100
C110        C  0.49956487  0.00717362  0.85960097    -0.18100
H111        H  0.50360404  0.82876299  0.12138957     0.14800
H112        H  0.50560384  0.89883035  0.19360801     0.14800
H113        H  0.44081377  0.08861067  0.81247149     0.14800
H114        H  0.43852748  0.15931547  0.88287366     0.14800
H115        H  0.55932757  0.85019073  0.91513103     0.13100
H116        H  0.54486858  0.92104782  0.83023408     0.13100
H117        H  0.53802601  0.11723680  0.17819537     0.13100
H118        H  0.52300803  0.18671838  0.09291312     0.13100
H119        H  0.54034339  0.98492445  0.04033986     0.26400
H120        H  0.52900561  0.04635660  0.96523866     0.26400
N121        N  0.94890626  0.46600732  0.06168878    -0.36400
N122        N  0.06422660  0.47315273  0.05713651    -0.56900
N123        N  0.05206491  0.52451092  0.94830674    -0.36400
N124        N  0.93576249  0.51194673  0.95192086    -0.56900
C125        C  0.96293343  0.43613667  0.10807985     0.27200
C126        C  0.89498671  0.45533955  0.05184497     0.27200
C127        C  0.10140336  0.51280428  0.95055747     0.27200
C128        C  0.03260084  0.52952424  0.89422155     0.27200
C129        C  0.06206139  0.45994608  0.11167714     0.35800
C130        C  0.11642628  0.48913332  0.05086283     0.35800
C131        C  0.88664068  0.51260890  0.96455973     0.35800
C132        C  0.94121342  0.54251406  0.90407709     0.35800
C133        C  0.91731251  0.40616906  0.12818323    -0.21700
C134        C  0.87454632  0.41787371  0.09234611    -0.21700
C135        C  0.11375167  0.51155790  0.89742460    -0.21700
C136        C  0.07003768  0.52069625  0.86205093    -0.21700
C137        C  0.11308559  0.46576856  0.13984618    -0.22700
C138        C  0.14758079  0.48390176  0.10115630    -0.22700
C139        C  0.86087268  0.54438635  0.92474921    -0.22700
C140        C  0.89545318  0.56308044  0.88607389    -0.22700
C141        C  0.01489349  0.44197451  0.13672830    -0.18100
C142        C  0.86391983  0.48145776  0.00944597    -0.18100
C143        C  0.98353021  0.54515607  0.87274680    -0.18100
C144        C  0.13592092  0.50467177  0.99944369    -0.18100
H145        H  0.91447603  0.37928164  0.16528051     0.14800
H146        H  0.83308931  0.40167235  0.09650789     0.14800
H147        H  0.15001049  0.50412935  0.88488739     0.14800
H148        H  0.06674675  0.52099757  0.81744210     0.14800
H149        H  0.12432685  0.45726968  0.18368577     0.13100
H150        H  0.19054640  0.49203086  0.10924249     0.13100
H151        H  0.82098741  0.55221537  0.92295194     0.13100
H152        H  0.88733829  0.58763847  0.84820573     0.13100
H153        H  0.97458034  0.49760448  0.04342116     0.26400
H154        H  0.03479219  0.53397368  0.98119892     0.26400
O155        O  0.37180669  0.49998224  0.93735224    -0.80700
O156        O  0.60543915  0.47276778  0.97388880    -0.65400
O157        O  0.46056564  0.46746811  0.99609706    -1.12000
C158        C  0.52730540  0.65106741  0.02816999     1.06200
O159        O  0.62754925  0.50637200  0.05485215    -0.78600
O160        O  0.56714564  0.54851209  0.11461448    -0.66100
Ni161      Ni  0.40303833  0.43696388  0.94446679     1.34900
C162        C  0.51960193  0.53214680  0.12544133     0.85000
O163        O  0.51889033  0.39348441  0.97279691    -0.79100
O164        O  0.43010697  0.37155311  0.95065273    -0.89400
C165        C  0.64061470  0.48652554  0.01425846     0.84500
O166        O  0.43300354  0.45998943  0.87625685    -0.67600
O167        O  0.57256891  0.63709095  0.04050207    -0.86900
C168        C  0.48013114  0.47764259  0.86446270     0.85400
C169        C  0.47612863  0.35927721  0.96218694     1.06900
H170        H  0.54672717  0.56388026  0.95891678     0.38700
O171        O  0.54102997  0.54302322  0.99363518    -1.09500
O172        O  0.48035819  0.52671928  0.08720345    -0.66200
Ni173      Ni  0.47003366  0.54245835  0.00706632     1.26300
O174        O  0.52007769  0.48445864  0.90194777    -0.66400
O175        O  0.48369148  0.61818727  0.01600841    -0.78700
C176        C  0.35968935  0.51856472  0.97921258     0.84700
O177        O  0.39633035  0.53808978  0.01589182    -0.65900
Ni178      Ni  0.59809830  0.57085432  0.04687304     1.27400
Ni179      Ni  0.53154694  0.46857689  0.98207527     1.26100
H180        H  0.45572081  0.44707569  0.03123990     0.39300
O181        O  0.36983423  0.50161858  0.43229063    -0.80700
O182        O  0.60038593  0.46904852  0.47272663    -0.65400
O183        O  0.45552634  0.46008716  0.49032264    -1.12000
C184        C  0.52152770  0.63865451  0.53621603     1.06200
O185        O  0.61945064  0.49520949  0.55753901    -0.78600
O186        O  0.56001544  0.53955982  0.61786862    -0.66100
Ni187      Ni  0.39979379  0.43751447  0.43384097     1.34900
C188        C  0.51318951  0.51833820  0.62838655     0.85000
O189        O  0.51427217  0.39121897  0.45895692    -0.79100
O190        O  0.42540170  0.37160955  0.43391660    -0.89400
C191        C  0.63353635  0.47846945  0.51559094     0.84500
O192        O  0.43348265  0.46606692  0.36884504    -0.67600
O193        O  0.56831699  0.62779447  0.54418734    -0.86900
C194        C  0.48139360  0.48374118  0.35957769     0.85400
C195        C  0.47143241  0.35892042  0.44377654     1.06900
H196        H  0.54148000  0.55904371  0.46381225     0.38700
O197        O  0.53616390  0.53532793  0.49688837    -1.09500
O198        O  0.47474141  0.50811556  0.58968019    -0.66200
Ni199      Ni  0.46553463  0.53171605  0.51065946     1.26300
O200        O  0.51988231  0.48756695  0.39872412    -0.66400
O201        O  0.47867047  0.60411974  0.52830838    -0.78700
C202        C  0.35824882  0.51947124  0.47507973     0.84700
O203        O  0.39237487  0.52653275  0.51754158    -0.65900
Ni204      Ni  0.59265709  0.56097283  0.55095003     1.27400
Ni205      Ni  0.52685310  0.46354231  0.47755521     1.26100
H206        H  0.44910475  0.43575626  0.52278302     0.39300
C207        C  0.54627848  0.52050075  0.73095623    -0.21100
C208        C  0.50391822  0.50674205  0.68866743    -0.09100
C209        C  0.45327691  0.48481641  0.70525780     0.29700
C210        C  0.44593369  0.47609312  0.76189230    -0.21100
C211        C  0.48849098  0.48940025  0.80408194    -0.09100
C212        C  0.53883357  0.51233275  0.78745746     0.29700
F213        F  0.58114044  0.52749891  0.82569062    -0.19700
H214        H  0.58570450  0.53831952  0.72039116     0.18100
H215        H  0.40649915  0.45858088  0.77264848     0.18100
F216        F  0.41048203  0.47207418  0.66691793    -0.19600
C217        C  0.44992672  0.48884603  0.25670346    -0.21100
C218        C  0.49201827  0.49849518  0.30001757    -0.09100
C219        C  0.54349370  0.51931076  0.28491498     0.29700
C220        C  0.55202965  0.52979075  0.22864711    -0.21100
C221        C  0.50981425  0.51980447  0.18541758    -0.09100
C222        C  0.45844461  0.49919495  0.20062296     0.29700
F223        F  0.41602815  0.48850689  0.16138065    -0.19700
H224        H  0.40981590  0.47247287  0.26609503     0.18100
H225        H  0.59211293  0.54591423  0.21899603     0.18100
F226        F  0.58588254  0.52944678  0.32430221    -0.19600
C227        C  0.78964171  0.49855235  0.05672986    -0.21100
C228        C  0.80584161  0.47713195  0.01277143    -0.09100
C229        C  0.76692791  0.45490690  0.97096514     0.29700
C230        C  0.71302960  0.45664970  0.97202024    -0.21100
C231        C  0.69692578  0.48003638  0.01513881    -0.09100
C232        C  0.73605801  0.49998425  0.05818405     0.29700
F233        F  0.72313786  0.52276451  0.10106897    -0.19700
H234        H  0.81895419  0.51574145  0.08934663     0.18100
H235        H  0.68408922  0.44060816  0.93857300     0.18100
F236        F  0.78134611  0.43267007  0.92853501    -0.19600
C237        C  0.28616796  0.55474443  0.01171973    -0.21100
C238        C  0.30275698  0.51555104  0.98520182    -0.09100
C239        C  0.26434873  0.47193923  0.96536150     0.29700
C240        C  0.21069438  0.46802917  0.97153275    -0.21100
C241        C  0.19377303  0.50828116  0.99580436    -0.09100
C242        C  0.23200808  0.55156964  0.01636661     0.29700
F243        F  0.21684753  0.59067327  0.04086849    -0.19700
H244        H  0.31499434  0.58831849  0.02785211     0.18100
H245        H  0.18198121  0.43382511  0.95652856     0.18100
F246        F  0.27878994  0.43220915  0.94113596    -0.19600
C247        C  0.48370566  0.72950116  0.99544243    -0.21100
C248        C  0.52615223  0.70892811  0.02654272    -0.09100
C249        C  0.56874744  0.74466699  0.05337471     0.29700
C250        C  0.56864268  0.79965750  0.04888403    -0.21100
C251        C  0.52634682  0.81985451  0.01776935    -0.09100
C252        C  0.48387304  0.78463423  0.99082597     0.29700
F253        F  0.44276431  0.80372741  0.96001441    -0.19700
H254        H  0.45086224  0.70307064  0.97379873     0.18100
H255        H  0.60152793  0.82666510  0.06978267     0.18100
F256        F  0.61039632  0.72666016  0.08430181    -0.19600
C257        C  0.43964554  0.20750452  0.97702028    -0.21100
C258        C  0.48995978  0.19381356  0.98247724    -0.09100
C259        C  0.53537707  0.23394947  0.97843447     0.29700
C260        C  0.53048603  0.28776660  0.97045996    -0.21100
C261        C  0.48009241  0.30206450  0.96551205    -0.09100
C262        C  0.43441250  0.26116885  0.96765484     0.29700
F263        F  0.38477903  0.27271572  0.96186141    -0.19700
H264        H  0.40442368  0.17638020  0.97934241     0.18100
H265        H  0.56624663  0.31822266  0.96852014     0.18100
F266        F  0.58431511  0.22094287  0.98249276    -0.19600
C267        C  0.55247066  0.73397755  0.50674469    -0.21100
C268        C  0.51593994  0.69447012  0.53297339    -0.09100
C269        C  0.47077567  0.70771723  0.54996184     0.29700
C270        C  0.46329957  0.76038182  0.54249685    -0.21100
C271        C  0.50010284  0.80022975  0.51712323    -0.09100
C272        C  0.54424024  0.78668829  0.49793697     0.29700
F273        F  0.57962473  0.82416223  0.47158388    -0.19700
H274        H  0.58644233  0.72368067  0.49165898     0.18100
H275        H  0.42852159  0.76999094  0.55657705     0.18100
F276        F  0.43393909  0.66982756  0.57388213    -0.19600
C277        C  0.43703476  0.26224739  0.46292441    -0.21100
C278        C  0.47541171  0.30294123  0.44103425    -0.09100
C279        C  0.52091948  0.29007232  0.42423674     0.29700
C280        C  0.52926618  0.23737526  0.43242253    -0.21100
C281        C  0.49304802  0.19741356  0.45868328    -0.09100
C282        C  0.44589484  0.20975012  0.47224037     0.29700
F283        F  0.40918718  0.17162117  0.49600204    -0.19700
H284        H  0.40182441  0.27171732  0.47618218     0.18100
H285        H  0.56547952  0.22850110  0.42092658     0.18100
F286        F  0.55822807  0.32877488  0.40204870    -0.19600
C287        C  0.44266659  0.95818333  0.71848948    -0.21100
C288        C  0.47022506  0.99719425  0.68226084    -0.09100
C289        C  0.50615660  0.04113277  0.70480999     0.29700
C290        C  0.51556709  0.04444124  0.76243714    -0.21100
C291        C  0.48894878  0.00445537  0.79831597    -0.09100
C292        C  0.45158932  0.96186681  0.77569190     0.29700
F293        F  0.42371705  0.92371990  0.80908730    -0.19700
H294        H  0.41390400  0.92448871  0.70249591     0.18100
H295        H  0.54408164  0.07790404  0.77923317     0.18100
F296        F  0.53334658  0.07989337  0.67152265    -0.19600
C297        C  0.49810515  0.98643530  0.29797026    -0.21100
C298        C  0.54641294  0.01269493  0.32527330    -0.09100
C299        C  0.58775642  0.03671208  0.29336849     0.29700
C300        C  0.58072935  0.03404562  0.23577577    -0.21100
C301        C  0.53203008  0.00895262  0.20846487    -0.09100
C302        C  0.49050938  0.98551654  0.24013627     0.29700
F303        F  0.44236297  0.96235596  0.21505896    -0.19700
H304        H  0.46545051  0.96809876  0.32129830     0.18100
H305        H  0.61313227  0.05247471  0.21212667     0.18100
F306        F  0.63515710  0.06249480  0.31772031    -0.19600
C307        C  0.78121963  0.48703309  0.55692500    -0.21100
C308        C  0.79603210  0.46934793  0.51001765    -0.09100
C309        C  0.75713895  0.45194706  0.46638788     0.29700
C310        C  0.70400157  0.45331741  0.46935283    -0.21100
C311        C  0.68889682  0.47184199  0.51592632    -0.09100
C312        C  0.72797749  0.48776838  0.56034988     0.29700
F313        F  0.71524130  0.50529715  0.60652202    -0.19700
H314        H  0.81097808  0.50027781  0.59093495     0.18100
H315        H  0.67490091  0.44113876  0.43447249     0.18100
F316        F  0.77086940  0.43630246  0.41971705    -0.19600
C317        C  0.21083580  0.51878770  0.43899355    -0.21100
C318        C  0.19873046  0.53703497  0.48709828    -0.09100
C319        C  0.24020798  0.55632196  0.52768894     0.29700
C320        C  0.29255739  0.55302916  0.52220057    -0.21100
C321        C  0.30447390  0.53128853  0.47576424    -0.09100
C322        C  0.26330665  0.51666376  0.43279839     0.29700
F323        F  0.27306901  0.49785129  0.38594523    -0.19700
H324        H  0.17936153  0.50478975  0.40677938     0.18100
H325        H  0.32343253  0.56545344  0.55551399     0.18100
F326        F  0.22972080  0.57446927  0.57460478    -0.19600
C327        C  0.93649335  0.51990222  0.78127001    -0.21100
C328        C  0.97376930  0.55690286  0.81226722    -0.09100
C329        C  0.00953065  0.59665435  0.78528653     0.29700
C330        C  0.01396333  0.59337921  0.72973701    -0.21100
C331        C  0.98151425  0.55171436  0.70048255    -0.09100
C332        C  0.93983499  0.51767512  0.72516289     0.29700
F333        F  0.90625647  0.47866428  0.69700442    -0.19700
H334        H  0.90822708  0.48945027  0.80161844     0.18100
H335        H  0.04511923  0.62118269  0.71056678     0.18100
F336        F  0.04514929  0.63344058  0.81450670    -0.19600
C337        C  0.03125530  0.49111703  0.27803579    -0.21100
C338        C  0.01297862  0.44368836  0.30958469    -0.09100
C339        C  0.00131024  0.39403950  0.28587256     0.29700
C340        C  0.00580316  0.39248430  0.22989168    -0.21100
C341        C  0.01950610  0.44066395  0.19736091    -0.09100
C342        C  0.03370015  0.48984981  0.22198294     0.29700
F343        F  0.04724036  0.53693435  0.19107969    -0.19700
H344        H  0.04021924  0.52962890  0.29601285     0.18100
H345        H  0.99595623  0.35431559  0.21129484     0.18100
F346        F  0.98449141  0.34763983  0.31646732    -0.19600
C347        C  0.27515082  0.00534273  0.56097956    -0.21100
C348        C  0.30111817  0.01679742  0.51296429    -0.09100
C349        C  0.27273290  0.03300296  0.46297999     0.29700
C350        C  0.21866993  0.03557390  0.46075099    -0.21100
C351        C  0.19235077  0.02229160  0.50837672    -0.09100
C352        C  0.22136883  0.00847452  0.55890282     0.29700
F353        F  0.19703018  0.99587244  0.60566077    -0.19700
H354        H  0.29626378  0.99239585  0.59984187     0.18100
H355        H  0.19663417  0.04552336  0.42136828     0.18100
F356        F  0.29616952  0.04233619  0.41561275    -0.19600
C357        C  0.79362851  0.99780041  0.55494165    -0.21100
C358        C  0.80860723  0.97226132  0.51284396    -0.09100
C359        C  0.76886311  0.94865549  0.47259983     0.29700
C360        C  0.71553692  0.95288231  0.47318098    -0.21100
C361        C  0.70130584  0.98181760  0.51300594    -0.09100
C362        C  0.74064808  0.00296589  0.55486995     0.29700
F363        F  0.72813601  0.03036448  0.59453979    -0.19700
H364        H  0.82365454  0.01632388  0.58623046     0.18100
H365        H  0.68599630  0.93695070  0.44013811     0.18100
F366        F  0.78218219  0.92514830  0.43045598    -0.19600
C367        C  0.02733337  0.77544150  0.55424369    -0.18300
C368        C  0.99146152  0.79570341  0.51292041    -0.09100
C369        C  0.95927379  0.75875213  0.47687741     0.29700
C370        C  0.96407439  0.70364066  0.48169734    -0.21100
C371        C  0.00169145  0.68403788  0.52198594    -0.09100
C372        C  0.03247522  0.72110933  0.55888078     0.29700
F373        F  0.06745998  0.70481144  0.60070229    -0.19700
H374        H  0.05223150  0.80228934  0.58303092     0.18100
H375        H  0.93922387  0.67664222  0.45307060     0.18100
F376        F  0.92432970  0.77623718  0.43587268    -0.19600
C377        C  0.97992765  0.21732435  0.53706647    -0.21100
C378        C  0.00891716  0.19874562  0.50045460    -0.09100
C379        C  0.03580274  0.23786921  0.46338227     0.29700
C380        C  0.03291729  0.29306880  0.46280711    -0.21100
C381        C  0.00246141  0.31112429  0.49834069    -0.09100
C382        C  0.97623235  0.27219851  0.53571264     0.29700
F383        F  0.94641031  0.28719675  0.57083391    -0.19700
H384        H  0.95884435  0.18876360  0.56620308     0.18100
H385        H  0.05234735  0.32145294  0.43235644     0.18100
F386        F  0.06283041  0.22250458  0.42577283    -0.19600
loop_ 
_geom_bond_atom_site_label_1 
_geom_bond_atom_site_label_2 
_geom_bond_distance 
_geom_bond_site_symmetry_2 
_ccdc_geom_bond_type 
N1            C6   1.366       .  A
N1            C5   1.356       .  A
N1           H33   1.039       .  S
N2            C9   1.354       .  A
N2           C10   1.361       .  A
N3            C8   1.355       .  A
N3            C7   1.365       .  A
N3           H34   1.038       .  S
N4           C11   1.362       .  A
N4           C12   1.355       .  A
C5           C13   1.389       .  A
C5           C21   1.427   1_545  A
C6           C22   1.428   1_655  A
C6           C14   1.385       .  A
C7           C15   1.386       .  A
C7           C24   1.429   1_455  A
C8           C23   1.427   1_565  A
C8           C16   1.390       .  A
C9           C21   1.425       .  A
C9           C17   1.389       .  A
C10          C24   1.426       .  A
C10          C18   1.384       .  A
C11          C19   1.384       .  A
C11          C22   1.427       .  A
C12          C20   1.388       .  A
C12          C23   1.425       .  A
C13          C14   1.376       .  A
C13          H25   1.082       .  S
C14          H26   1.082       .  S
C15          C16   1.376       .  A
C15          H27   1.082       .  S
C16          H28   1.082       .  S
C17          C18   1.381       .  A
C17          H29   1.082       .  S
C18          H30   1.082       .  S
C19          C20   1.379       .  A
C19          H31   1.082       .  S
C20          H32   1.082       .  S
C21         C358   1.497       .  S
C22         C378   1.532       .  S
C23         C351   1.493       .  S
C24         C368   1.527       .  S
O35         Ni41   1.928       .  S
O35          C56   1.270       .  A
O36         Ni59   1.890       .  S
O36          C45   1.268       .  A
O37         Ni41   1.911       .  S
O37         Ni59   1.909   1_455  S
O37         Ni53   1.908       .  S
O37          H60   0.966       .  S
C38         C338   1.450       .  S
C38          O55   1.269       .  A
C38          O47   1.276   1_455  A
O39         Ni58   1.925       .  S
O39          C45   1.273       .  A
O40         Ni58   1.920       .  S
O40          C42   1.269       .  A
Ni41         O44   1.909       .  S
Ni41         O46   1.911       .  S
C42         C381   1.515   1_655  S
C42          O52   1.283   1_655  A
O43         Ni59   1.909       .  S
O43          C49   1.273       .  A
O44          C49   1.276   1_455  A
C45         C308   1.459       .  S
O46          C48   1.270       .  A
O47         Ni58   1.928       .  S
C48         C371   1.520       .  S
C48          O54   1.285   1_455  A
C49         C331   1.463       .  S
H50          O51   0.967       .  S
O51         Ni59   1.905       .  S
O51         Ni53   1.896   1_655  S
O51         Ni58   1.914       .  S
O52         Ni53   1.982       .  S
Ni53         O57   1.895       .  S
Ni53         O55   1.881       .  S
O54         Ni59   1.978       .  S
C56         C318   1.470       .  S
C56          O57   1.266       .  A
O61         Ni67   1.916       .  S
O61          C82   1.272       .  A
O62         Ni85   1.884       .  S
O62          C71   1.269       .  A
O63         Ni67   1.892       .  S
O63         Ni85   1.883   1_565  S
O63         Ni79   1.917       .  S
O63          H86   0.966       .  S
C64         C361   1.482       .  S
C64          O81   1.281       .  A
C64          O73   1.277   1_565  A
O65         Ni84   1.922       .  S
O65          C71   1.274       .  A
O66         Ni84   1.922       .  S
O66          C68   1.270       .  A
Ni67         O70   1.924       .  S
Ni67         O72   1.896       .  S
C68         C298   1.488       .  S
C68          O78   1.272   1_545  A
O69         Ni85   1.936       .  S
O69          C75   1.281       .  A
O70          C75   1.276   1_565  A
C71         C281   1.462       .  S
O72          C74   1.267       .  A
O73         Ni84   1.920       .  S
C74         C288   1.487       .  S
C74          O80   1.276   1_565  A
C75         C348   1.480       .  S
H76          O77   0.966       .  S
O77         Ni85   1.917       .  S
O77         Ni79   1.879   1_545  S
O77         Ni84   1.893       .  S
O78         Ni79   1.929       .  S
Ni79         O83   1.876       .  S
Ni79         O81   1.946       .  S
O80         Ni85   1.946       .  S
C82         C271   1.452       .  S
C82          O83   1.263       .  A
N87          C92   1.357       .  A
N87          C91   1.351       .  A
N87         H119   1.038       .  S
N88          C95   1.346       .  A
N88          C96   1.352       .  A
N89          C94   1.346       .  A
N89          C93   1.355       .  A
N89         H120   1.040       .  S
N90          C97   1.354       .  A
N90          C98   1.350       .  A
C91          C99   1.388       .  A
C91         C107   1.416       .  A
C92         C108   1.419   1_565  A
C92         C100   1.387       .  A
C93         C101   1.384       .  A
C93         C110   1.410       .  A
C94         C109   1.410       .  A
C94         C102   1.390       .  A
C95         C107   1.410   1_556  A
C95         C103   1.388       .  A
C96         C110   1.410   1_565  A
C96         C104   1.384       .  A
C97         C105   1.386       .  A
C97         C108   1.417       .  A
C98         C106   1.387       .  A
C98         C109   1.413   1_554  A
C99         C100   1.374       .  A
C99         H111   1.082       .  S
C100        H112   1.081       .  S
C101        C102   1.372       .  A
C101        H113   1.082       .  S
C102        H114   1.081       .  S
C103        C104   1.373       .  A
C103        H115   1.082       .  S
C104        H116   1.082       .  S
C105        C106   1.372       .  A
C105        H117   1.082       .  S
C106        H118   1.082       .  S
C107        C251   1.475       .  S
C108        C301   1.497       .  S
C109        C258   1.468       .  S
C110        C291   1.491       .  S
N121        C126   1.357       .  A
N121        C125   1.347       .  A
N121        H153   1.039       .  S
N122        C129   1.347       .  A
N122        C130   1.353       .  A
N123        C128   1.351       .  A
N123        C127   1.358       .  A
N123        H154   1.041       .  S
N124        C131   1.350       .  A
N124        C132   1.344       .  A
C125        C133   1.390       .  A
C125        C141   1.414   1_655  A
C126        C142   1.416       .  A
C126        C134   1.384       .  A
C127        C135   1.383       .  A
C127        C144   1.413       .  A
C128        C143   1.420   1_455  A
C128        C136   1.391       .  A
C129        C141   1.411       .  A
C129        C137   1.389       .  A
C130        C144   1.407   1_554  A
C130        C138   1.384       .  A
C131        C139   1.386       .  A
C131        C142   1.410   1_556  A
C132        C140   1.387       .  A
C132        C143   1.405       .  A
C133        C134   1.375       .  A
C133        H145   1.080       .  S
C134        H146   1.082       .  S
C135        C136   1.369       .  A
C135        H147   1.081       .  S
C136        H148   1.081       .  S
C137        C138   1.370       .  A
C137        H149   1.082       .  S
C138        H150   1.082       .  S
C139        C140   1.373       .  A
C139        H151   1.082       .  S
C140        H152   1.082       .  S
C141        C341   1.468       .  S
C142        C228   1.495       .  S
C143        C328   1.475       .  S
C144        C241   1.493       .  S
O155       Ni161   1.916       .  S
O155        C176   1.270       .  A
O156       Ni179   1.927       .  S
O156        C165   1.273   1_556  A
O157       Ni161   1.905       .  S
O157       Ni179   1.905       .  S
O157       Ni173   1.915   1_556  S
O157        H180   0.967   1_556  S
C158        C248   1.474       .  S
C158        O175   1.280       .  A
C158        O167   1.278       .  A
O159       Ni178   1.923       .  S
O159        C165   1.271       .  A
O160       Ni178   1.921       .  S
O160        C162   1.270       .  A
Ni161       O164   1.914       .  S
Ni161       O166   1.921       .  S
C162        C221   1.512       .  S
C162        O172   1.277       .  A
O163       Ni179   1.903       .  S
O163        C169   1.276       .  A
O164        C169   1.276       .  A
C165        C231   1.493       .  S
O166        C168   1.272       .  A
O167       Ni178   1.913       .  S
C168        C211   1.511       .  S
C168        O174   1.279       .  A
C169        C261   1.472       .  S
H170        O171   0.966       .  S
O171       Ni179   1.905       .  S
O171       Ni173   1.904   1_556  S
O171       Ni178   1.901   1_556  S
O172       Ni173   1.951       .  S
Ni173       O177   1.925       .  S
Ni173       O175   1.917       .  S
O174       Ni179   1.953       .  S
C176        C238   1.484       .  S
C176        O177   1.272   1_556  A
O181       Ni187   1.934       .  S
O181        C202   1.275       .  A
O182       Ni205   1.895       .  S
O182        C191   1.270       .  A
O183       Ni187   1.896       .  S
O183       Ni205   1.894       .  S
O183       Ni199   1.895       .  S
O183        H206   0.966       .  S
C184        C268   1.448       .  S
C184        O201   1.273       .  A
C184        O193   1.278       .  A
O185       Ni204   1.918       .  S
O185        C191   1.272       .  A
O186       Ni204   1.921       .  S
O186        C188   1.271       .  A
Ni187       O190   1.920       .  S
Ni187       O192   1.922       .  S
C188        C208   1.514       .  S
C188        O198   1.280       .  A
O189       Ni205   1.894       .  S
O189        C195   1.274       .  A
O190        C195   1.279       .  A
C191        C311   1.472       .  S
O192        C194   1.272       .  A
O193       Ni204   1.911       .  S
C194        C218   1.513       .  S
C194        O200   1.278       .  A
C195        C278   1.456       .  S
H196        O197   0.966       .  S
O197       Ni205   1.893       .  S
O197       Ni199   1.883       .  S
O197       Ni204   1.889       .  S
O198       Ni199   1.960       .  S
Ni199       O203   1.897       .  S
Ni199       O201   1.888       .  S
O200       Ni205   1.956       .  S
C202        C321   1.481       .  S
C202        O203   1.269       .  A
C207        C208   1.414       .  A
C207        C212   1.409       .  A
C207        H214   1.083       .  S
C208        C209   1.412       .  A
C209        C210   1.412       .  A
C209        F216   1.357       .  S
C210        C211   1.414       .  A
C210        H215   1.083       .  S
C211        C212   1.410       .  A
C212        F213   1.357       .  S
C217        C218   1.413       .  A
C217        C222   1.408       .  A
C217        H224   1.083       .  S
C218        C219   1.413       .  A
C219        C220   1.412       .  A
C219        F226   1.357       .  S
C220        C221   1.414       .  A
C220        H225   1.083       .  S
C221        C222   1.411       .  A
C222        F223   1.357       .  S
C227        C228   1.400       .  A
C227        C232   1.397       .  A
C227        H234   1.083       .  S
C228        C229   1.409   1_554  A
C229        C230   1.406       .  A
C229        F236   1.358       .  S
C230        C231   1.408   1_556  A
C230        H235   1.083       .  S
C231        C232   1.414       .  A
C232        F233   1.357       .  S
C237        C238   1.405   1_554  A
C237        C242   1.405       .  A
C237        H244   1.083       .  S
C238        C239   1.410       .  A
C239        C240   1.397       .  A
C239        F246   1.358       .  S
C240        C241   1.401       .  A
C240        H245   1.083       .  S
C241        C242   1.408   1_556  A
C242        F243   1.357       .  S
C247        C248   1.405   1_556  A
C247        C252   1.394       .  A
C247        H254   1.083       .  S
C248        C249   1.411       .  A
C249        C250   1.392       .  A
C249        F256   1.358       .  S
C250        C251   1.398       .  A
C250        H255   1.083       .  S
C251        C252   1.403   1_554  A
C252        F253   1.358       .  S
C257        C258   1.397       .  A
C257        C262   1.391       .  A
C257        H264   1.084       .  S
C258        C259   1.400       .  A
C259        C260   1.391       .  A
C259        F266   1.358       .  S
C260        C261   1.407       .  A
C260        H265   1.083       .  S
C261        C262   1.411       .  A
C262        F263   1.357       .  S
C267        C268   1.402       .  A
C267        C272   1.389       .  A
C267        H274   1.084       .  S
C268        C269   1.402       .  A
C269        C270   1.381       .  A
C269        F276   1.358       .  S
C270        C271   1.401       .  A
C270        H275   1.084       .  S
C271        C272   1.405       .  A
C272        F273   1.358       .  S
C277        C278   1.400       .  A
C277        C282   1.390       .  A
C277        H284   1.084       .  S
C278        C279   1.404       .  A
C279        C280   1.390       .  A
C279        F286   1.358       .  S
C280        C281   1.403       .  A
C280        H285   1.083       .  S
C281        C282   1.406       .  A
C282        F283   1.358       .  S
C287        C288   1.409       .  A
C287        C292   1.395       .  A
C287        H294   1.083       .  S
C288        C289   1.409   1_565  A
C289        C290   1.404       .  A
C289        F296   1.357       .  S
C290        C291   1.406       .  A
C290        H295   1.083       .  S
C291        C292   1.403   1_545  A
C292        F293   1.358       .  S
C297        C298   1.407   1_565  A
C297        C302   1.402       .  A
C297        H304   1.083       .  S
C298        C299   1.411       .  A
C299        C300   1.401       .  A
C299        F306   1.358       .  S
C300        C301   1.404       .  A
C300        H305   1.083       .  S
C301        C302   1.407   1_545  A
C302        F303   1.357       .  S
C307        C308   1.399       .  A
C307        C312   1.393       .  A
C307        H314   1.084       .  S
C308        C309   1.403       .  A
C309        C310   1.392       .  A
C309        F316   1.358       .  S
C310        C311   1.405       .  A
C310        H315   1.083       .  S
C311        C312   1.410       .  A
C312        F313   1.357       .  S
C317        C318   1.402       .  A
C317        C322   1.396       .  A
C317        H324   1.084       .  S
C318        C319   1.404       .  A
C319        C320   1.397       .  A
C319        F326   1.358       .  S
C320        C321   1.407       .  A
C320        H325   1.083       .  S
C321        C322   1.410       .  A
C322        F323   1.357       .  S
C327        C328   1.404       .  A
C327        C332   1.393       .  A
C327        H334   1.083       .  S
C328        C329   1.402   1_655  A
C329        C330   1.390       .  A
C329        F336   1.358       .  S
C330        C331   1.404   1_455  A
C330        H335   1.084       .  S
C331        C332   1.403       .  A
C332        F333   1.357       .  S
C337        C338   1.397       .  A
C337        C342   1.384       .  A
C337        H344   1.084       .  S
C338        C339   1.404       .  A
C339        C340   1.394       .  A
C339        F346   1.357   1_455  S
C340        C341   1.401       .  A
C340        H345   1.083   1_455  S
C341        C342   1.404       .  A
C342        F343   1.359       .  S
C347        C348   1.406       .  A
C347        C352   1.401       .  A
C347        H354   1.084   1_545  S
C348        C349   1.405       .  A
C349        C350   1.404       .  A
C349        F356   1.356       .  S
C350        C351   1.405       .  A
C350        H355   1.083       .  S
C351        C352   1.405       .  A
C352        F353   1.358   1_545  S
C357        C358   1.405       .  A
C357        C362   1.400   1_565  A
C357        H364   1.083   1_565  S
C358        C359   1.407       .  A
C359        C360   1.405       .  A
C359        F366   1.357       .  S
C360        C361   1.406       .  A
C360        H365   1.083       .  S
C361        C362   1.407   1_565  A
C362        F363   1.358       .  S
C367        C368   1.405   1_455  A
C367        C372   1.406       .  A
C367        H374   1.083       .  S
C368        C369   1.417       .  A
C369        C370   1.423       .  A
C369        F376   1.356       .  S
C370        C371   1.412   1_655  A
C370        H375   1.083       .  S
C371        C372   1.418       .  A
C372        F373   1.358       .  S
C377        C378   1.412   1_655  A
C377        C382   1.414       .  A
C377        H384   1.083       .  S
C378        C379   1.415       .  A
C379        C380   1.419       .  A
C379        F386   1.357       .  S
C380        C381   1.413       .  A
C380        H385   1.083       .  S
C381        C382   1.410   1_455  A
C382        F383   1.357       .  S
